8DV7_ligand
     RDKit          3D

 76 81  0  0  0  0  0  0  0  0999 V2000
   -1.9120   -3.1630   27.5710 N   0  0  0  0  0  0  0  0  0  0  0  0
   -1.6680    1.0970   27.0230 C   0  0  0  0  0  0  0  0  0  0  0  0
   -1.7790   -0.3740   27.1230 C   0  0  0  0  0  0  0  0  0  0  0  0
   -2.8850   -1.1130   26.8420 C   0  0  0  0  0  0  0  0  0  0  0  0
   -0.4740   -1.1100   27.6650 C   0  0  1  0  0  0  0  0  0  0  0  0
   -0.6670   -2.5980   27.3830 C   0  0  2  0  0  0  0  0  0  0  0  0
   -2.2200   -4.3660   28.3870 C   0  0  0  0  0  0  0  0  0  0  0  0
    0.2110   -6.5760   30.3660 C   0  0  0  0  0  0  0  0  0  0  0  0
    0.0610   -4.2730   31.3410 C   0  0  0  0  0  0  0  0  0  0  0  0
    0.1680   -2.9130   26.1060 C   0  0  1  0  0  0  0  0  0  0  0  0
   -4.1640   -4.1680   25.3190 C   0  0  0  0  0  0  0  0  0  0  0  0
   -4.4550   -4.7460   23.9330 C   0  0  0  0  0  0  0  0  0  0  0  0
   -3.7710   -4.2180   22.9100 C   0  0  0  0  0  0  0  0  0  0  0  0
   -2.4880   -2.5800   24.3030 C   0  0  0  0  0  0  0  0  0  0  0  0
   -4.6490   -3.5870   20.6740 C   0  0  1  0  0  0  0  0  0  0  0  0
   -4.7450   -2.6220   18.4170 C   0  0  1  0  0  0  0  0  0  0  0  0
   -4.1200   -0.4020   26.3760 C   0  0  0  0  0  0  0  0  0  0  0  0
   -1.1780   -4.9630   29.3340 C   0  0  0  0  0  0  0  0  0  0  0  0
   -0.7860   -6.2310   29.2830 C   0  0  0  0  0  0  0  0  0  0  0  0
    0.5750   -5.6840   31.2900 C   0  0  0  0  0  0  0  0  0  0  0  0
   -0.7710   -3.9170   30.3800 C   0  0  0  0  0  0  0  0  0  0  0  0
    0.6920   -3.3760   27.4450 C   0  0  1  0  0  0  0  0  0  0  0  0
   -3.2260   -3.1960   25.4890 C   0  0  0  0  0  0  0  0  0  0  0  0
   -4.0630    0.9360   26.2480 C   0  0  0  0  0  0  0  0  0  0  0  0
   -2.7510   -3.1100   23.1020 C   0  0  0  0  0  0  0  0  0  0  0  0
   -4.0210   -4.7820   21.4540 C   0  0  1  0  0  0  0  0  0  0  0  0
   -4.6530   -3.8680   19.0960 C   0  0  2  0  0  0  0  0  0  0  0  0
   -5.4090   -3.1060   17.1300 C   0  0  1  0  0  0  0  0  0  0  0  0
   -2.8070    1.7200   26.6150 C   0  0  0  0  0  0  0  0  0  0  0  0
   -5.9200   -4.6020   18.7660 C   0  0  1  0  0  0  0  0  0  0  0  0
   -6.7240   -4.7880   16.7830 C   0  0  1  0  0  0  0  0  0  0  0  0
   -7.1910   -4.1730   15.4320 C   0  0  1  0  0  0  0  0  0  0  0  0
   -7.9460   -5.2600   14.6330 C   0  0  2  0  0  0  0  0  0  0  0  0
   -3.0440   -2.6170   26.8740 C   0  0  1  0  0  0  0  0  0  0  0  0
   -6.4400   -3.9310   17.6460 N   0  0  2  0  0  0  0  0  0  0  0  0
   -3.3320   -4.8110   28.4220 O   0  0  0  0  0  0  0  0  0  0  0  0
   -2.7480    3.0710   26.4090 O   0  0  0  0  0  0  0  0  0  0  0  0
   -0.7590    1.6320   27.2540 H   0  0  0  0  0  0  0  0  0  0  0  0
    0.4100   -0.7400   27.1460 H   0  0  0  0  0  0  0  0  0  0  0  0
   -0.3720   -0.9450   28.7380 H   0  0  0  0  0  0  0  0  0  0  0  0
    0.6390   -7.5670   30.3930 H   0  0  0  0  0  0  0  0  0  0  0  0
    0.3560   -3.5870   32.1210 H   0  0  0  0  0  0  0  0  0  0  0  0
   -0.1990   -3.6450   25.3860 H   0  0  0  0  0  0  0  0  0  0  0  0
    0.6920   -2.0610   25.6730 H   0  0  0  0  0  0  0  0  0  0  0  0
   -4.7100   -4.5360   26.1750 H   0  0  0  0  0  0  0  0  0  0  0  0
   -5.1740   -5.5380   23.7870 H   0  0  0  0  0  0  0  0  0  0  0  0
   -1.7930   -1.7630   24.4260 H   0  0  0  0  0  0  0  0  0  0  0  0
   -5.6750   -3.4410   21.0120 H   0  0  0  0  0  0  0  0  0  0  0  0
   -4.0730   -2.6840   20.8760 H   0  0  0  0  0  0  0  0  0  0  0  0
   -5.3680   -1.9070   18.9550 H   0  0  0  0  0  0  0  0  0  0  0  0
   -3.7560   -2.2090   18.2180 H   0  0  0  0  0  0  0  0  0  0  0  0
   -5.0250   -0.9460   26.1510 H   0  0  0  0  0  0  0  0  0  0  0  0
   -1.1410   -6.9380   28.5480 H   0  0  0  0  0  0  0  0  0  0  0  0
    1.2810   -5.9950   32.0460 H   0  0  0  0  0  0  0  0  0  0  0  0
   -1.1570   -2.9100   30.3310 H   0  0  0  0  0  0  0  0  0  0  0  0
    1.5710   -2.8990   27.8780 H   0  0  0  0  0  0  0  0  0  0  0  0
    0.6060   -4.4460   27.6320 H   0  0  0  0  0  0  0  0  0  0  0  0
   -4.9270    1.4680   25.8770 H   0  0  0  0  0  0  0  0  0  0  0  0
   -2.2190   -2.7360   22.2400 H   0  0  0  0  0  0  0  0  0  0  0  0
   -3.0820   -5.0910   20.9940 H   0  0  0  0  0  0  0  0  0  0  0  0
   -4.7180   -5.6190   21.4880 H   0  0  0  0  0  0  0  0  0  0  0  0
   -3.7720   -4.4300   18.7860 H   0  0  0  0  0  0  0  0  0  0  0  0
   -5.8140   -2.2750   16.5530 H   0  0  0  0  0  0  0  0  0  0  0  0
   -4.7100   -3.6900   16.5300 H   0  0  0  0  0  0  0  0  0  0  0  0
   -5.7090   -5.6440   18.5260 H   0  0  0  0  0  0  0  0  0  0  0  0
   -6.6190   -4.5410   19.6000 H   0  0  0  0  0  0  0  0  0  0  0  0
   -7.5250   -5.4170   17.1710 H   0  0  0  0  0  0  0  0  0  0  0  0
   -5.8460   -5.4080   16.6020 H   0  0  0  0  0  0  0  0  0  0  0  0
   -7.8540   -3.3290   15.6220 H   0  0  0  0  0  0  0  0  0  0  0  0
   -6.3240   -3.8360   14.8640 H   0  0  0  0  0  0  0  0  0  0  0  0
   -3.9380   -2.8470   27.4540 H   0  0  0  0  0  0  0  0  0  0  0  0
   -7.2520   -3.3840   17.8950 H   0  0  0  0  0  0  0  0  0  0  0  0
   -3.5680    3.3700   26.0100 H   0  0  0  0  0  0  0  0  0  0  0  0
   -8.2810   -4.8460   13.6820 H   0  0  0  0  0  0  0  0  0  0  0  0
   -8.8090   -5.5980   15.2060 H   0  0  0  0  0  0  0  0  0  0  0  0
   -7.2800   -6.1030   14.4480 H   0  0  0  0  0  0  0  0  0  0  0  0
  6  1  1  6
  1  7  1  0
  1 34  1  0
  2  3  2  0
  2 29  1  0
  2 38  1  0
  3  4  1  0
  3  5  1  0
  4 17  2  0
  4 34  1  0
  5  6  1  0
  5 39  1  6
  5 40  1  0
  6 10  1  0
  6 22  1  0
  7 18  1  0
  7 36  2  0
  8 19  2  0
  8 20  1  0
  8 41  1  0
  9 20  2  0
  9 21  1  0
  9 42  1  0
 10 22  1  0
 10 43  1  6
 10 44  1  0
 11 12  2  0
 11 23  1  0
 11 45  1  0
 12 13  1  0
 12 46  1  0
 13 25  2  0
 13 26  1  0
 14 23  2  0
 14 25  1  0
 14 47  1  0
 15 26  1  0
 15 27  1  0
 15 48  1  1
 15 49  1  0
 16 27  1  0
 16 28  1  0
 16 50  1  1
 16 51  1  0
 17 24  1  0
 17 52  1  0
 18 19  1  0
 18 21  2  0
 19 53  1  0
 20 54  1  0
 21 55  1  0
 22 56  1  1
 22 57  1  0
 23 34  1  0
 24 29  2  0
 24 58  1  0
 25 59  1  0
 26 60  1  6
 26 61  1  0
 27 30  1  0
 27 62  1  6
 28 35  1  0
 28 63  1  6
 28 64  1  0
 29 37  1  0
 30 35  1  0
 30 65  1  6
 30 66  1  0
 31 32  1  0
 31 35  1  0
 31 67  1  1
 31 68  1  0
 32 33  1  0
 32 69  1  1
 32 70  1  0
 33 74  1  6
 33 75  1  0
 33 76  1  0
 34 71  1  1
 35 72  1  1
 37 73  1  0
M  CHG  1  35   1
M  END
