5K6J
     RDKit          3D

 28 30  0  0  0  0  0  0  0  0999 V2000
  -37.5950   89.4060  117.9580 C   0  0  0  0  0  0  0  0  0  0  0  0
  -38.5550   90.5380  117.7020 C   0  0  0  0  0  0  0  0  0  0  0  0
  -39.8710   90.2440  117.0230 C   0  0  0  0  0  0  0  0  0  0  0  0
  -40.8440   91.4240  117.1170 C   0  0  0  0  0  0  0  0  0  0  0  0
  -42.1230   91.0910  116.3540 C   0  0  0  0  0  0  0  0  0  0  0  0
  -42.2270   92.2730  114.2130 C   0  0  0  0  0  0  0  0  0  0  0  0
  -45.7360   93.7840  115.0910 C   0  0  0  0  0  0  0  0  0  0  0  0
  -48.4370   91.1820  116.0290 C   0  0  0  0  0  0  0  0  0  0  0  0
  -45.9580   93.4460  117.4730 C   0  0  0  0  0  0  0  0  0  0  0  0
  -43.0470   94.4800  112.7520 C   0  0  0  0  0  0  0  0  0  0  0  0
  -40.0740   92.2200  113.0070 C   0  0  0  0  0  0  0  0  0  0  0  0
  -38.2540   91.6600  118.0360 O   0  0  0  0  0  0  0  0  0  0  0  0
  -41.8650   91.1820  114.9430 O   0  0  0  0  0  0  0  0  0  0  0  0
  -43.4150   92.8270  114.3960 N   0  0  0  0  0  0  0  0  0  0  0  0
  -43.8620   93.8940  113.7320 C   0  0  0  0  0  0  0  0  0  0  0  0
  -45.1060   94.3800  114.0340 O   0  0  0  0  0  0  0  0  0  0  0  0
  -46.7330   92.8350  114.8720 C   0  0  0  0  0  0  0  0  0  0  0  0
  -47.3400   92.2100  115.9480 C   0  0  0  0  0  0  0  0  0  0  0  0
  -48.7220   90.9300  117.4200 O   0  0  0  0  0  0  0  0  0  0  0  0
  -47.8230   91.6210  118.2100 B   0  0  1  0  0  0  0  0  0  0  0  0
  -48.4690   92.2780  119.2280 O   0  0  0  0  0  0  0  0  0  0  0  0
  -46.9410   90.7410  118.7780 O   0  0  0  0  0  0  0  0  0  0  0  0
  -46.9670   92.5220  117.2600 C   0  0  0  0  0  0  0  0  0  0  0  0
  -45.3460   94.0770  116.3980 C   0  0  0  0  0  0  0  0  0  0  0  0
  -43.5820   95.8640  111.8520 Cl  0  0  0  0  0  0  0  0  0  0  0  0
  -41.7880   93.9360  112.4990 C   0  0  0  0  0  0  0  0  0  0  0  0
  -41.3600   92.8090  113.2360 C   0  0  0  0  0  0  0  0  0  0  0  0
  -39.0480   91.7710  112.8050 N   0  0  0  0  0  0  0  0  0  0  0  0
 20 23  1  0
 20 19  1  0
 20 22  1  1
 20 21  1  0
  1  2  1  0
 15 16  1  0
 15 10  1  0
 15 14  2  0
  7 16  1  0
  7 17  1  0
  7 24  2  0
 17 18  2  0
 18 23  1  0
 18  8  1  0
  8 19  1  0
  2 12  2  0
  2  3  1  0
 23  9  2  0
  9 24  1  0
 10 26  2  0
 10 25  1  0
 26 27  1  0
 27  6  2  0
 27 11  1  0
 11 28  3  0
  3  4  1  0
  4  5  1  0
  5 13  1  0
  6 13  1  0
  6 14  1  0
M  CHG  1  20  -1
M  END
$$$$
