7K4K
     RDKit          3D

 18 19  0  0  0  0  0  0  0  0999 V2000
   12.7110    3.7030   25.7000 N   0  0  0  0  0  0  0  0  0  0  0  0
   14.1110    3.4630   26.2040 C   0  0  0  0  0  0  0  0  0  0  0  0
   15.0270    3.7510   25.0290 C   0  0  0  0  0  0  0  0  0  0  0  0
   14.2800    4.6010   23.9820 C   0  0  2  0  0  0  0  0  0  0  0  0
   14.6810    4.2930   22.5220 C   0  0  0  0  0  0  0  0  0  0  0  0
   14.7480    2.8560   21.9990 C   0  0  0  0  0  0  0  0  0  0  0  0
   15.3820    7.8860   23.0350 O   0  0  0  0  0  0  0  0  0  0  0  0
   15.4930    6.9630   23.8170 C   0  0  0  0  0  0  0  0  0  0  0  0
   16.6240    6.5610   24.3240 O   0  0  0  0  0  0  0  0  0  0  0  0
   14.3190    6.1200   24.3660 C   0  0  1  0  0  0  0  0  0  0  0  0
   12.7950    4.2660   24.2830 C   0  0  2  0  0  0  0  0  0  0  0  0
   11.9790    5.5780   24.0550 C   0  0  0  0  0  0  0  0  0  0  0  0
   13.0130    6.6530   23.8660 N   0  0  0  0  0  0  0  0  0  0  0  0
   15.3420    2.7850   20.5900 C   0  0  0  0  0  0  0  0  0  0  0  0
   14.9010    1.4490   19.8700 B   0  0  2  0  0  0  0  0  0  0  0  0
   15.6560    1.2680   18.6310 O   0  0  0  0  0  0  0  0  0  0  0  0
   13.4980    1.4290   19.4390 O   0  0  0  0  0  0  0  0  0  0  0  0
   15.2350    0.2180   20.5860 O   0  0  0  0  0  0  0  0  0  0  0  0
 15 14  1  0
 15 16  1  6
 15 17  1  0
 15 18  1  0
  8  7  2  0
  8  9  1  0
 10  8  1  6
 10  4  1  0
 10 13  1  0
 11 12  1  1
 12 13  1  0
 11  1  1  0
 11  4  1  0
  2  1  1  0
  2  3  1  0
  3  4  1  0
  4  5  1  6
  5  6  1  0
  6 14  1  0
M  CHG  1  15  -1
M  END
$$$$
