5LMD
     RDKit          3D

 24 26  0  0  0  0  0  0  0  0999 V2000
   -6.8160    4.0030   15.5170 C   0  0  0  0  0  0  0  0  0  0  0  0
   -5.7410    4.6620   14.9550 C   0  0  0  0  0  0  0  0  0  0  0  0
   -4.4930    4.0630   14.8630 C   0  0  0  0  0  0  0  0  0  0  0  0
   -4.3170    2.7750   15.3410 C   0  0  0  0  0  0  0  0  0  0  0  0
   -5.3900    2.0760   15.9200 C   0  0  0  0  0  0  0  0  0  0  0  0
   -6.6380    2.6970   16.0010 C   0  0  0  0  0  0  0  0  0  0  0  0
   -7.6150    1.7440   16.5990 C   0  0  0  0  0  0  0  0  0  0  0  0
   -5.6020    0.6380   16.6200 B   0  0  2  0  0  0  0  0  0  0  0  0
   -5.3120    0.6140   18.0410 O   0  0  0  0  0  0  0  0  0  0  0  0
    1.6190    6.5210   11.6440 C   0  0  0  0  0  0  0  0  0  0  0  0
    0.3830    8.9070   12.3870 C   0  0  0  0  0  0  0  0  0  0  0  0
   -0.1850    7.6860   12.7000 C   0  0  0  0  0  0  0  0  0  0  0  0
   -0.1950   10.1000   12.7720 C   0  0  0  0  0  0  0  0  0  0  0  0
   -1.3730   10.0360   13.4930 C   0  0  0  0  0  0  0  0  0  0  0  0
   -1.9520    8.8340   13.8160 C   0  0  0  0  0  0  0  0  0  0  0  0
   -1.3740    7.6270   13.4260 C   0  0  0  0  0  0  0  0  0  0  0  0
   -4.0080    6.9140   14.4100 O   0  0  0  0  0  0  0  0  0  0  0  0
    0.3590    6.4980   12.3280 O   0  0  0  0  0  0  0  0  0  0  0  0
   -3.3420    4.7170   14.3650 N   0  0  0  0  0  0  0  0  0  0  0  0
   -1.9120    6.3470   13.7120 N   0  0  0  0  0  0  0  0  0  0  0  0
   -3.1490    6.0610   14.1880 C   0  0  0  0  0  0  0  0  0  0  0  0
   -2.0400   11.3300   13.9300 C   0  0  0  0  0  0  0  0  0  0  0  0
   -5.0830   -0.5410   15.9930 O   0  0  0  0  0  0  0  0  0  0  0  0
   -7.0160    0.4640   16.4630 O   0  0  0  0  0  0  0  0  0  0  0  0
  8  9  1  1
  8  5  1  0
  8 23  1  0
  8 24  1  0
  5  6  2  0
  5  4  1  0
 12 11  2  0
 12 18  1  0
 12 16  1  0
 11 13  1  0
 13 14  2  0
 14 15  1  0
 14 22  1  0
 15 16  2  0
 10 18  1  0
  4  3  2  0
  3  2  1  0
  3 19  1  0
  2  1  2  0
  1  6  1  0
  6  7  1  0
  7 24  1  0
 21 20  1  0
 21 17  2  0
 21 19  1  0
 16 20  1  0
M  CHG  1   8  -1
M  END
$$$$
