7OXB_ligand
     RDKit          3D

 58 62  0  0  0  0  0  0  0  0999 V2000
   52.6240   -4.0700  -16.3520 C   0  0  1  0  0  0  0  0  0  0  0  0
   53.6750   -3.3820  -17.0350 O   0  0  0  0  0  0  0  0  0  0  0  0
   53.3920   -2.2260  -17.7000 C   0  0  0  0  0  0  0  0  0  0  0  0
   52.7200   -1.1760  -17.0740 C   0  0  0  0  0  0  0  0  0  0  0  0
   52.4510   -0.0090  -17.7760 C   0  0  0  0  0  0  0  0  0  0  0  0
   52.8460    0.1300  -19.0970 C   0  0  0  0  0  0  0  0  0  0  0  0
   53.5320   -0.9120  -19.7530 C   0  0  0  0  0  0  0  0  0  0  0  0
   53.7930   -2.0950  -19.0240 C   0  0  0  0  0  0  0  0  0  0  0  0
   53.9500   -0.7530  -21.1780 C   0  0  0  0  0  0  0  0  0  0  0  0
   54.8240   -1.6260  -21.7670 N   0  0  0  0  0  0  0  0  0  0  0  0
   55.2140   -1.4850  -23.0640 C   0  0  0  0  0  0  0  0  0  0  0  0
   54.7270   -0.4670  -23.8080 C   0  0  0  0  0  0  0  0  0  0  0  0
   53.8260    0.4310  -23.1950 C   0  0  0  0  0  0  0  0  0  0  0  0
   53.4740    0.2510  -21.9070 N   0  0  0  0  0  0  0  0  0  0  0  0
   53.2650    1.5600  -23.9470 C   0  0  0  0  0  0  0  0  0  0  0  0
   53.5090    1.8990  -25.2780 C   0  0  0  0  0  0  0  0  0  0  0  0
   52.7580    3.0310  -25.5190 C   0  0  0  0  0  0  0  0  0  0  0  0
   52.0750    3.3360  -24.3110 C   0  0  0  0  0  0  0  0  0  0  0  0
   52.4100    2.4520  -23.4270 N   0  0  0  0  0  0  0  0  0  0  0  0
   51.1630    4.5310  -24.2020 C   0  0  1  0  0  0  0  0  0  0  0  0
   50.5830    4.8270  -25.5910 C   0  0  2  0  0  0  0  0  0  0  0  0
   51.5370    4.7230  -26.6970 N   0  0  0  0  0  0  0  0  0  0  0  0
   52.5870    3.8660  -26.7120 C   0  0  0  0  0  0  0  0  0  0  0  0
   53.3560    3.7960  -27.6540 O   0  0  0  0  0  0  0  0  0  0  0  0
   50.0390    4.2000  -23.1930 C   0  0  1  0  0  0  0  0  0  0  0  0
   49.2970    5.4620  -22.7400 C   0  0  1  0  0  0  0  0  0  0  0  0
   50.3170    6.3400  -22.1460 N   0  0  0  0  0  0  0  0  0  0  0  0
   51.2230    6.8870  -23.1770 C   0  0  1  0  0  0  0  0  0  0  0  0
   52.0400    5.7090  -23.7330 C   0  0  1  0  0  0  0  0  0  0  0  0
   50.4130    6.5570  -20.7990 C   0  0  0  0  0  0  0  0  0  0  0  0
   49.6070    6.0400  -20.0500 O   0  0  0  0  0  0  0  0  0  0  0  0
   51.4760    7.4490  -20.1890 C   0  0  0  0  0  0  0  0  0  0  0  0
   51.8080    7.0840  -18.7410 C   0  0  0  0  0  0  0  0  0  0  0  0
   52.5590    7.6540  -18.1940 H   0  0  0  0  0  0  0  0  0  0  0  0
   51.2940    6.2540  -18.2570 H   0  0  0  0  0  0  0  0  0  0  0  0
   51.9550    8.2670  -20.7270 H   0  0  0  0  0  0  0  0  0  0  0  0
   52.4090   -1.2710  -16.0440 H   0  0  0  0  0  0  0  0  0  0  0  0
   51.9280    0.8000  -17.2870 H   0  0  0  0  0  0  0  0  0  0  0  0
   52.6260    1.0440  -19.6280 H   0  0  0  0  0  0  0  0  0  0  0  0
   54.3130   -2.9110  -19.5040 H   0  0  0  0  0  0  0  0  0  0  0  0
   52.0730    2.4360  -22.4750 H   0  0  0  0  0  0  0  0  0  0  0  0
   55.9120   -2.1860  -23.4980 H   0  0  0  0  0  0  0  0  0  0  0  0
   55.0180   -0.3440  -24.8410 H   0  0  0  0  0  0  0  0  0  0  0  0
   53.0120   -4.5030  -15.4300 H   0  0  0  0  0  0  0  0  0  0  0  0
   51.8240   -3.3680  -16.1150 H   0  0  0  0  0  0  0  0  0  0  0  0
   52.2340   -4.8630  -16.9900 H   0  0  0  0  0  0  0  0  0  0  0  0
   54.1520    1.3830  -25.9750 H   0  0  0  0  0  0  0  0  0  0  0  0
   51.4050    5.3260  -27.4960 H   0  0  0  0  0  0  0  0  0  0  0  0
   50.1860    5.8420  -25.5820 H   0  0  0  0  0  0  0  0  0  0  0  0
   49.7610    4.1360  -25.7770 H   0  0  0  0  0  0  0  0  0  0  0  0
   49.3280    3.5220  -23.6660 H   0  0  0  0  0  0  0  0  0  0  0  0
   50.4740    3.7100  -22.3220 H   0  0  0  0  0  0  0  0  0  0  0  0
   48.8260    5.9510  -23.5930 H   0  0  0  0  0  0  0  0  0  0  0  0
   48.5450    5.2060  -21.9940 H   0  0  0  0  0  0  0  0  0  0  0  0
   50.6440    7.3500  -23.9760 H   0  0  0  0  0  0  0  0  0  0  0  0
   51.8910    7.6230  -22.7300 H   0  0  0  0  0  0  0  0  0  0  0  0
   52.7100    5.3520  -22.9510 H   0  0  0  0  0  0  0  0  0  0  0  0
   52.6370    6.0610  -24.5750 H   0  0  0  0  0  0  0  0  0  0  0  0
  1  2  1  0
  1 44  1  1
  1 45  1  0
  1 46  1  0
  2  3  1  0
  3  4  2  0
  3  8  1  0
  4  5  1  0
  4 37  1  0
  5  6  2  0
  5 38  1  0
  6  7  1  0
  6 39  1  0
  7  8  2  0
  7  9  1  0
  8 40  1  0
  9 10  2  0
  9 14  1  0
 10 11  1  0
 11 12  2  0
 11 42  1  0
 12 13  1  0
 12 43  1  0
 13 14  2  0
 13 15  1  0
 15 16  2  0
 15 19  1  0
 16 17  1  0
 16 47  1  0
 17 18  2  0
 17 23  1  0
 18 19  1  0
 20 18  1  6
 19 41  1  0
 20 21  1  0
 20 25  1  0
 20 29  1  0
 21 22  1  0
 21 49  1  1
 21 50  1  0
 22 23  1  0
 22 48  1  0
 23 24  2  0
 25 26  1  0
 25 51  1  6
 25 52  1  0
 26 27  1  0
 26 53  1  6
 26 54  1  0
 27 28  1  0
 27 30  1  0
 28 29  1  0
 28 55  1  6
 28 56  1  0
 29 57  1  1
 29 58  1  0
 30 31  2  0
 30 32  1  0
 32 33  2  3
 32 36  1  0
 33 34  1  0
 33 35  1  0
M  END
