6IBS
     RDKit          3D

 21 22  0  0  0  0  0  0  0  0999 V2000
   -8.7360    0.7890  -18.5940 C   0  0  0  0  0  0  0  0  0  0  0  0
   -7.5550    0.1460  -17.9030 C   0  0  0  0  0  0  0  0  0  0  0  0
   -7.1580    0.6040  -16.5110 C   0  0  0  0  0  0  0  0  0  0  0  0
   -6.0250   -0.0080  -15.8420 N   0  0  0  0  0  0  0  0  0  0  0  0
   -4.8340    0.7770  -15.5730 C   0  0  0  0  0  0  0  0  0  0  0  0
   -4.9090    1.9560  -15.4870 O   0  0  0  0  0  0  0  0  0  0  0  0
   -3.5980    0.1410  -15.4170 O   0  0  0  0  0  0  0  0  0  0  0  0
   -2.7700    0.7370  -14.4600 C   0  0  2  0  0  0  0  0  0  0  0  0
   -2.2140    2.0470  -15.0130 C   0  0  0  0  0  0  0  0  0  0  0  0
   -1.6160   -0.2060  -14.1290 C   0  0  0  0  0  0  0  0  0  0  0  0
   -3.5770    1.0200  -13.1930 C   0  0  0  0  0  0  0  0  0  0  0  0
   -7.9590    1.7230  -15.8040 C   0  0  0  0  0  0  0  0  0  0  0  0
   -7.7970    2.3940  -14.4020 S   0  0  0  0  0  0  0  0  0  0  0  0
   -8.9160    3.4680  -14.2570 C   0  0  0  0  0  0  0  0  0  0  0  0
   -9.1620    4.4530  -12.9360 B   0  0  1  0  0  0  0  0  0  0  0  0
  -10.7970    4.6990  -12.7240 O   0  0  0  0  0  0  0  0  0  0  0  0
   -8.5290    3.7270  -11.5770 O   0  0  0  0  0  0  0  0  0  0  0  0
   -8.4070    5.9170  -13.1870 O   0  0  0  0  0  0  0  0  0  0  0  0
   -9.7110    3.4590  -15.4830 C   0  0  0  0  0  0  0  0  0  0  0  0
   -9.0980    2.3440  -16.4690 C   0  0  0  0  0  0  0  0  0  0  0  0
   -9.5140    1.8870  -17.8880 C   0  0  0  0  0  0  0  0  0  0  0  0
 15 16  1  1
 15 17  1  0
 15 18  1  0
 15 14  1  0
  1  2  2  0
  1 21  1  0
  2  3  1  0
  3  4  1  0
  3 12  2  0
  5  7  1  0
  5  4  1  0
  5  6  2  0
  8  7  1  0
  8  9  1  6
  8 10  1  0
  8 11  1  0
 12 20  1  0
 12 13  1  0
 14 19  2  0
 14 13  1  0
 19 20  1  0
 20 21  2  0
M  CHG  1  15  -1
M  END
$$$$
