6j8r_BHU_ligand
     RDKit          3D

 23 22  0  0  0  0  0  0  0  0999 V2000
  -30.7840   11.1400   68.3220 C   0  0  1  0  0  0  0  0  0  0  0  0
  -31.4700   12.4050   68.5440 N   0  0  0  0  0  0  0  0  0  0  0  0
  -30.9200   13.3860   69.4660 C   0  0  0  0  0  0  0  0  0  0  0  0
  -29.9040   13.1720   70.0460 O   0  0  0  0  0  0  0  0  0  0  0  0
  -31.6610   14.7070   69.6400 C   0  0  1  0  0  0  0  0  0  0  0  0
  -31.5340   15.3060   71.0360 C   0  0  2  0  0  0  0  0  0  0  0  0
  -32.2880   14.2440   72.2960 S   0  0  0  0  0  0  0  0  0  0  0  0
  -30.9860   15.6840   68.6720 C   0  0  2  0  0  0  0  0  0  0  0  0
  -31.3360   10.0260   69.2720 B   0  0  0  0  0  0  0  0  0  0  0  0
  -30.4610    9.0970   69.6980 O   0  0  0  0  0  0  0  0  0  0  0  0
  -32.6350    9.6900   69.1930 O   0  0  0  0  0  0  0  0  0  0  0  0
  -30.9330   10.8310   67.2870 H   0  0  0  0  0  0  0  0  0  0  0  0
  -29.7180   11.2730   68.5060 H   0  0  0  0  0  0  0  0  0  0  0  0
  -32.3310   12.6020   68.0560 H   0  0  0  0  0  0  0  0  0  0  0  0
  -32.7120   14.5850   69.3780 H   0  0  0  0  0  0  0  0  0  0  0  0
  -32.0300   16.2770   71.0490 H   0  0  0  0  0  0  0  0  0  0  0  0
  -30.4780   15.4420   71.2700 H   0  0  0  0  0  0  0  0  0  0  0  0
  -31.6080   13.0970   72.3760 H   0  0  0  0  0  0  0  0  0  0  0  0
  -33.1750   10.4360   69.4660 H   0  0  0  0  0  0  0  0  0  0  0  0
  -31.0530   15.2950   67.6560 H   0  0  0  0  0  0  0  0  0  0  0  0
  -29.9380   15.8030   68.9470 H   0  0  0  0  0  0  0  0  0  0  0  0
  -31.4870   16.6510   68.7250 H   0  0  0  0  0  0  0  0  0  0  0  0
  -30.9110    8.4710   70.2700 H   0  0  0  0  0  0  0  0  0  0  0  0
  9 10  1  0
  9 11  1  0
  9  1  1  0
  1 12  1  6
  1 13  1  0
  1  2  1  0
  3  2  1  0
  3  4  2  0
  3  5  1  0
  5  8  1  0
  5 15  1  6
  5  6  1  0
  6 16  1  6
  6 17  1  0
  6  7  1  0
  8 20  1  6
  8 21  1  0
  8 22  1  0
 23 10  1  0
 19 11  1  0
 14  2  1  0
 18  7  1  0
M  END
