6Q30
     RDKit          3D

 16 17  0  0  0  0  0  0  0  0999 V2000
   -8.5510    1.4510  -17.7200 C   0  0  0  0  0  0  0  0  0  0  0  0
   -9.5500    1.8340  -18.7480 C   0  0  0  0  0  0  0  0  0  0  0  0
  -10.1940    2.8970  -18.6200 O   0  0  0  0  0  0  0  0  0  0  0  0
   -9.6120    1.1040  -19.7660 O   0  0  0  0  0  0  0  0  0  0  0  0
   -8.5760    2.2220  -16.4050 C   0  0  0  0  0  0  0  0  0  0  0  0
   -9.5790    3.3490  -15.7410 S   0  0  0  0  0  0  0  0  0  0  0  0
   -8.8580    3.4610  -14.2860 C   0  0  0  0  0  0  0  0  0  0  0  0
   -9.1790    4.5110  -13.0750 B   0  0  1  0  0  0  0  0  0  0  0  0
   -8.6200    5.9930  -13.5090 O   0  0  0  0  0  0  0  0  0  0  0  0
  -10.7180    4.8520  -12.8460 O   0  0  0  0  0  0  0  0  0  0  0  0
   -8.6600    3.8490  -11.6430 O   0  0  0  0  0  0  0  0  0  0  0  0
   -7.7280    2.5900  -14.1110 C   0  0  0  0  0  0  0  0  0  0  0  0
   -7.5620    1.7780  -15.4160 C   0  0  0  0  0  0  0  0  0  0  0  0
   -6.5090    0.7020  -15.6570 C   0  0  0  0  0  0  0  0  0  0  0  0
   -6.4970    0.0140  -16.9980 C   0  0  0  0  0  0  0  0  0  0  0  0
   -7.5280    0.3900  -18.0060 C   0  0  0  0  0  0  0  0  0  0  0  0
  8  7  1  0
  8  9  1  6
  8 10  1  0
  8 11  1  0
  1  2  1  0
  1  5  2  0
  1 16  1  0
  2  3  2  0
  2  4  1  0
  5  6  1  0
  5 13  1  0
  7  6  1  0
  7 12  2  0
 12 13  1  0
 13 14  2  0
 14 15  1  0
 15 16  2  0
M  CHG  1   8  -1
M  END
$$$$
