6UBO
     RDKit          3D

 23 25  0  0  0  0  0  0  0  0999 V2000
    3.0160   16.5240   89.3600 F   0  0  0  0  0  0  0  0  0  0  0  0
    2.6740   15.2980   89.9940 B   0  0  2  0  0  0  0  0  0  0  0  0
    1.4040   15.4010   90.7080 F   0  0  0  0  0  0  0  0  0  0  0  0
    3.7300   15.0560   91.1760 N   0  0  0  0  0  0  0  0  0  0  0  0
    4.2170   13.8230   91.4530 C   0  0  0  0  0  0  0  0  0  0  0  0
    4.0320   12.6980   90.5880 C   0  0  0  0  0  0  0  0  0  0  0  0
    3.2580   12.8110   89.3980 C   0  0  0  0  0  0  0  0  0  0  0  0
    3.2420   11.6960   88.5310 C   0  0  0  0  0  0  0  0  0  0  0  0
    4.9500   13.9350   92.7000 C   0  0  0  0  0  0  0  0  0  0  0  0
    4.9210   15.2140   93.0150 N   0  0  0  0  0  0  0  0  0  0  0  0
    5.5730   15.7530   94.2270 C   0  0  0  0  0  0  0  0  0  0  0  0
    4.1640   15.8700   92.1290 C   0  0  0  0  0  0  0  0  0  0  0  0
    3.8150   17.3170   92.3350 C   0  0  0  0  0  0  0  0  0  0  0  0
    5.6460   13.0310   93.2520 O   0  0  0  0  0  0  0  0  0  0  0  0
    2.7340   14.0840   89.0230 C   0  0  0  0  0  0  0  0  0  0  0  0
    2.1050   14.1640   87.7930 C   0  0  0  0  0  0  0  0  0  0  0  0
    2.0240   13.0420   86.9290 C   0  0  0  0  0  0  0  0  0  0  0  0
    2.6060   11.8280   87.2860 C   0  0  0  0  0  0  0  0  0  0  0  0
    1.3680   13.1740   85.6600 N   0  0  0  0  0  0  0  0  0  0  0  0
    1.4280   12.1390   84.6350 C   0  0  0  0  0  0  0  0  0  0  0  0
    2.8130   12.0020   84.0100 C   0  0  0  0  0  0  0  0  0  0  0  0
    0.6450   14.4090   85.2950 C   0  0  0  0  0  0  0  0  0  0  0  0
    1.7380   15.3470   84.8340 C   0  0  0  0  0  0  0  0  0  0  0  0
  2  1  1  6
  2  3  1  0
  2  4  1  0
  2 15  1  0
 18  8  2  0
 18 17  1  0
 23 22  1  0
 21 20  1  0
  6  5  2  0
  6  7  1  0
  5  4  1  0
  5  9  1  0
  9 10  1  0
  9 14  2  0
 13 12  1  0
 11 10  1  0
  8  7  1  0
  7 15  2  0
 15 16  1  0
 16 17  2  0
 17 19  1  0
 22 19  1  0
 20 19  1  0
 12  4  2  0
 12 10  1  0
M  CHG  2   2  -1   4   1
M  END
$$$$
