4au8_ligand
     RDKit          3D

 26 28  0  0  0  0  0  0  0  0999 V2000
    5.1570   28.3340    3.9580 C   0  0  0  0  0  0  0  0  0  0  0  0
    5.9480   27.3760    4.6200 C   0  0  0  0  0  0  0  0  0  0  0  0
    7.1630   26.9560    4.0690 C   0  0  0  0  0  0  0  0  0  0  0  0
    7.5640   27.4860    2.8310 C   0  0  0  0  0  0  0  0  0  0  0  0
    6.7790   28.4420    2.1620 C   0  0  0  0  0  0  0  0  0  0  0  0
    5.5530   28.8630    2.7510 C   0  0  0  0  0  0  0  0  0  0  0  0
    7.3340   28.8600    0.9940 N   0  0  0  0  0  0  0  0  0  0  0  0
    8.4900   28.3580    0.6780 C   0  0  0  0  0  0  0  0  0  0  0  0
    9.0120   27.1830    1.8590 S   0  0  0  0  0  0  0  0  0  0  0  0
    9.2820   28.6850   -0.5170 C   0  0  0  0  0  0  0  0  0  0  0  0
   10.4620   28.0150   -0.8630 C   0  0  0  0  0  0  0  0  0  0  0  0
   11.0060   28.5060   -1.9700 C   0  0  0  0  0  0  0  0  0  0  0  0
   10.0980   29.8330   -2.6130 S   0  0  0  0  0  0  0  0  0  0  0  0
    8.9510   29.6870   -1.3490 C   0  0  0  0  0  0  0  0  0  0  0  0
   12.4410   27.9800   -2.8160 S   0  0  1  0  0  0  0  0  0  0  0  0
   11.8960   27.4650   -4.0210 O   0  0  0  0  0  0  0  0  0  0  0  0
   13.3550   29.0580   -2.8850 O   0  0  0  0  0  0  0  0  0  0  0  0
   13.0810   26.7140   -1.9880 N   0  0  0  0  0  0  0  0  0  0  0  0
    4.2280   28.6580    4.4030 H   0  0  0  0  0  0  0  0  0  0  0  0
    5.6140   26.9620    5.5600 H   0  0  0  0  0  0  0  0  0  0  0  0
    7.7820   26.2370    4.5860 H   0  0  0  0  0  0  0  0  0  0  0  0
    4.9360   29.5950    2.2520 H   0  0  0  0  0  0  0  0  0  0  0  0
   10.8800   27.1960   -0.2960 H   0  0  0  0  0  0  0  0  0  0  0  0
    8.0800   30.3150   -1.2360 H   0  0  0  0  0  0  0  0  0  0  0  0
   12.5080   25.8940   -2.1290 H   0  0  0  0  0  0  0  0  0  0  0  0
   13.1130   26.9370   -1.0030 H   0  0  0  0  0  0  0  0  0  0  0  0
  1  2  2  0
  1  6  1  0
  1 19  1  0
  2  3  1  0
  2 20  1  0
  3  4  2  0
  3 21  1  0
  4  5  1  0
  4  9  1  0
  5  6  2  0
  5  7  1  0
  6 22  1  0
  7  8  2  0
  8  9  1  0
  8 10  1  0
 10 11  1  0
 10 14  2  0
 11 12  2  0
 11 23  1  0
 12 13  1  0
 12 15  1  0
 13 14  1  0
 14 24  1  0
 15 16  2  0
 15 17  2  0
 15 18  1  1
 18 25  1  0
 18 26  1  0
M  END
