8p4z_ligand
     RDKit          3D

 61 65  0  0  0  0  0  0  0  0999 V2000
   -5.5350   -0.5700   28.8190 C   0  0  1  0  0  0  0  0  0  0  0  0
   -6.6820   -0.5610   29.8150 C   0  0  2  0  0  0  0  0  0  0  0  0
   -5.5490    0.6620   27.9340 C   0  0  0  0  0  0  0  0  0  0  0  0
   -5.3500    1.9880   28.2930 C   0  0  0  0  0  0  0  0  0  0  0  0
   -5.3530    4.0970   27.2700 C   0  0  0  0  0  0  0  0  0  0  0  0
   -5.7880    0.7220   26.5450 C   0  0  0  0  0  0  0  0  0  0  0  0
   -4.2040   -0.7460   29.5280 C   0  0  1  0  0  0  0  0  0  0  0  0
   -5.0950    2.5390   29.4950 N   0  0  0  0  0  0  0  0  0  0  0  0
   -4.9800    3.8680   29.5260 C   0  0  0  0  0  0  0  0  0  0  0  0
   -5.0890    4.6760   28.4250 N   0  0  0  0  0  0  0  0  0  0  0  0
   -5.4770    2.7390   27.1490 N   0  0  0  0  0  0  0  0  0  0  0  0
   -5.7500    1.9560   26.0510 N   0  0  0  0  0  0  0  0  0  0  0  0
   -5.6200    4.8610   26.1890 N   0  0  0  0  0  0  0  0  0  0  0  0
   -5.5420    6.3170   26.2030 C   0  0  1  0  0  0  0  0  0  0  0  0
   -6.6260    6.9780   27.0270 C   0  0  0  0  0  0  0  0  0  0  0  0
   -7.7600    6.2700   27.4150 C   0  0  0  0  0  0  0  0  0  0  0  0
   -8.7160    6.8490   28.2320 C   0  0  0  0  0  0  0  0  0  0  0  0
   -8.5630    8.1460   28.6670 C   0  0  0  0  0  0  0  0  0  0  0  0
   -7.4500    8.8800   28.2950 C   0  0  0  0  0  0  0  0  0  0  0  0
   -6.4900    8.2980   27.4710 C   0  0  0  0  0  0  0  0  0  0  0  0
   -5.4010    9.1060   27.0270 N   0  0  0  0  0  0  0  0  0  0  0  0
   -4.2670    9.4200   27.7060 C   0  0  0  0  0  0  0  0  0  0  0  0
   -3.5250   10.2210   26.8860 C   0  0  0  0  0  0  0  0  0  0  0  0
   -4.2810   10.3470   25.7230 C   0  0  0  0  0  0  0  0  0  0  0  0
   -5.4250    9.6760   25.7890 N   0  0  0  0  0  0  0  0  0  0  0  0
   -4.7590    4.4630   30.7080 O   0  0  0  0  0  0  0  0  0  0  0  0
   -4.6090    5.9210   30.7910 C   0  0  2  0  0  0  0  0  0  0  0  0
   -3.6450    6.2380   31.9150 C   0  0  1  0  0  0  0  0  0  0  0  0
   -4.2090    5.7960   33.2680 C   0  0  1  0  0  0  0  0  0  0  0  0
   -5.5710    6.4090   33.5220 C   0  0  1  0  0  0  0  0  0  0  0  0
   -6.5020    6.0730   32.4090 N   0  0  1  0  0  0  0  0  0  0  0  0
   -5.9940    6.5340   31.0820 C   0  0  1  0  0  0  0  0  0  0  0  0
   -5.6750   -1.4360   28.1720 H   0  0  0  0  0  0  0  0  0  0  0  0
   -5.9830   -0.1510   25.9400 H   0  0  0  0  0  0  0  0  0  0  0  0
   -5.8860    4.4020   25.3300 H   0  0  0  0  0  0  0  0  0  0  0  0
   -4.5740    6.6050   26.6130 H   0  0  0  0  0  0  0  0  0  0  0  0
   -5.6100    6.6810   25.1780 H   0  0  0  0  0  0  0  0  0  0  0  0
   -7.8960    5.2540   27.0740 H   0  0  0  0  0  0  0  0  0  0  0  0
   -9.5850    6.2810   28.5290 H   0  0  0  0  0  0  0  0  0  0  0  0
   -9.3140    8.5930   29.3010 H   0  0  0  0  0  0  0  0  0  0  0  0
   -7.3270    9.8960   28.6410 H   0  0  0  0  0  0  0  0  0  0  0  0
   -4.0030    9.0980   28.7030 H   0  0  0  0  0  0  0  0  0  0  0  0
   -2.5610   10.6610   27.0940 H   0  0  0  0  0  0  0  0  0  0  0  0
   -3.9720   10.9250   24.8650 H   0  0  0  0  0  0  0  0  0  0  0  0
   -4.2220    6.3090   29.8490 H   0  0  0  0  0  0  0  0  0  0  0  0
   -2.7050    5.7170   31.7340 H   0  0  0  0  0  0  0  0  0  0  0  0
   -3.4610    7.3120   31.9370 H   0  0  0  0  0  0  0  0  0  0  0  0
   -4.3010    4.7100   33.2770 H   0  0  0  0  0  0  0  0  0  0  0  0
   -3.5250    6.1040   34.0590 H   0  0  0  0  0  0  0  0  0  0  0  0
   -5.9730    6.0190   34.4570 H   0  0  0  0  0  0  0  0  0  0  0  0
   -5.4720    7.4920   33.5950 H   0  0  0  0  0  0  0  0  0  0  0  0
   -6.6230    5.0710   32.3790 H   0  0  0  0  0  0  0  0  0  0  0  0
   -7.3970    6.5070   32.5870 H   0  0  0  0  0  0  0  0  0  0  0  0
   -5.9110    7.6210   31.0880 H   0  0  0  0  0  0  0  0  0  0  0  0
   -6.6930    6.2300   30.3030 H   0  0  0  0  0  0  0  0  0  0  0  0
   -7.6250   -0.4340   29.2830 H   0  0  0  0  0  0  0  0  0  0  0  0
   -6.5470    0.2620   30.5170 H   0  0  0  0  0  0  0  0  0  0  0  0
   -6.6970   -1.5050   30.3600 H   0  0  0  0  0  0  0  0  0  0  0  0
   -3.3980   -0.7490   28.7940 H   0  0  0  0  0  0  0  0  0  0  0  0
   -4.0540    0.0760   30.2280 H   0  0  0  0  0  0  0  0  0  0  0  0
   -4.2040   -1.6910   30.0720 H   0  0  0  0  0  0  0  0  0  0  0  0
  1  2  1  0
  1  3  1  0
  1  7  1  0
  1 33  1  6
  2 56  1  6
  2 57  1  0
  2 58  1  0
  3  4  2  0
  3  6  1  0
  4  8  1  0
  4 11  1  0
  5 10  2  0
  5 11  1  0
  5 13  1  0
  6 12  2  0
  6 34  1  0
  7 59  1  6
  7 60  1  0
  7 61  1  0
  8  9  2  0
  9 10  1  0
  9 26  1  0
 11 12  1  0
 13 14  1  0
 13 35  1  0
 14 15  1  0
 14 36  1  1
 14 37  1  0
 15 16  2  0
 15 20  1  0
 16 17  1  0
 16 38  1  0
 17 18  2  0
 17 39  1  0
 18 19  1  0
 18 40  1  0
 19 20  2  0
 19 41  1  0
 20 21  1  0
 21 22  1  0
 21 25  1  0
 22 23  2  0
 22 42  1  0
 23 24  1  0
 23 43  1  0
 24 25  2  0
 24 44  1  0
 26 27  1  0
 27 28  1  0
 27 32  1  0
 27 45  1  6
 28 29  1  0
 28 46  1  6
 28 47  1  0
 29 30  1  0
 29 48  1  6
 29 49  1  0
 30 31  1  0
 30 50  1  1
 30 51  1  0
 31 32  1  0
 31 52  1  6
 31 53  1  0
 32 54  1  1
 32 55  1  0
M  CHG  1  31   1
M  END
