6RW1
     RDKit          3D

 22 24  0  0  0  0  0  0  0  0999 V2000
    0.1250    9.3510   13.7730 C   0  0  0  0  0  0  0  0  0  0  0  0
   -0.3340    9.5390   15.0640 C   0  0  0  0  0  0  0  0  0  0  0  0
   -1.3680    8.7570   15.5430 C   0  0  0  0  0  0  0  0  0  0  0  0
   -0.4520    8.3820   12.9620 C   0  0  0  0  0  0  0  0  0  0  0  0
   -5.0790    1.9830   15.4240 C   0  0  0  0  0  0  0  0  0  0  0  0
   -4.4240    2.9320   14.6220 C   0  0  0  0  0  0  0  0  0  0  0  0
   -4.8700    4.2490   14.5190 C   0  0  0  0  0  0  0  0  0  0  0  0
   -6.0030    4.6430   15.2290 C   0  0  0  0  0  0  0  0  0  0  0  0
   -6.6690    3.7210   16.0300 C   0  0  0  0  0  0  0  0  0  0  0  0
   -6.2120    2.4110   16.1260 C   0  0  0  0  0  0  0  0  0  0  0  0
   -6.7530    1.2610   16.9210 C   0  0  0  0  0  0  0  0  0  0  0  0
   -4.5500    6.0910   12.8300 C   0  0  0  0  0  0  0  0  0  0  0  0
   -2.1220    6.5370   12.5470 C   0  0  0  0  0  0  0  0  0  0  0  0
   -1.4950    7.5900   13.4300 C   0  0  0  0  0  0  0  0  0  0  0  0
   -1.9450    7.7900   14.7310 C   0  0  0  0  0  0  0  0  0  0  0  0
   -3.6060    0.2440   16.6210 O   0  0  0  0  0  0  0  0  0  0  0  0
   -6.1530    6.3980   12.4400 S   0  0  0  0  0  0  0  0  0  0  0  0
   -4.1430    5.1680   13.7220 N   0  0  0  0  0  0  0  0  0  0  0  0
   -3.5390    6.7660   12.2780 N   0  0  0  0  0  0  0  0  0  0  0  0
   -4.7850    0.4320   15.7590 B   0  0  1  0  0  0  0  0  0  0  0  0
   -6.0180    0.1140   16.5130 O   0  0  0  0  0  0  0  0  0  0  0  0
   -4.7110   -0.4750   14.6140 O   0  0  0  0  0  0  0  0  0  0  0  0
 20 16  1  1
 20 21  1  0
 20 22  1  0
 20  5  1  0
  5  6  2  0
  5 10  1  0
 14 15  1  0
 14  4  2  0
 14 13  1  0
 15  3  2  0
  3  2  1  0
  2  1  2  0
  1  4  1  0
  6  7  1  0
  7 18  1  0
  7  8  2  0
  8  9  1  0
  9 10  2  0
 10 11  1  0
 11 21  1  0
 12 17  2  0
 12 18  1  0
 12 19  1  0
 13 19  1  0
M  CHG  1  20  -1
M  END
$$$$
