4IE3
     RDKit          3D

 22 22  0  0  0  0  0  0  0  0999 V2000
   35.0640   88.9480   72.0690 O   0  0  0  0  0  0  0  0  0  0  0  0
   34.0030   88.6990   71.4440 C   0  0  0  0  0  0  0  0  0  0  0  0
   33.1580   89.5830   71.1310 O   0  0  0  0  0  0  0  0  0  0  0  0
   33.7260   87.2660   71.0510 C   0  0  1  0  0  0  0  0  0  0  0  0
   32.2870   87.1380   70.7650 N   0  0  0  0  0  0  0  0  0  0  0  0
   34.4860   86.8730   69.7850 C   0  0  0  0  0  0  0  0  0  0  0  0
   35.9660   86.5570   69.9690 C   0  0  0  0  0  0  0  0  0  0  0  0
   36.5890   86.0880   68.6420 C   0  0  0  0  0  0  0  0  0  0  0  0
   36.9210   87.2520   67.7050 C   0  0  0  0  0  0  0  0  0  0  0  0
   37.2650   86.7360   66.2380 B   0  0  2  0  0  0  0  0  0  0  0  0
   37.9230   87.6890   65.2630 O   0  0  0  0  0  0  0  0  0  0  0  0
   36.2690   85.8020   65.5980 O   0  0  0  0  0  0  0  0  0  0  0  0
   38.4400   85.7840   66.5260 O   0  0  0  0  0  0  0  0  0  0  0  0
   34.0990   86.3800   72.2360 C   0  0  0  0  0  0  0  0  0  0  0  0
   33.1420   86.6740   73.3840 C   0  0  0  0  0  0  0  0  0  0  0  0
   33.3170   85.7530   74.5140 N   0  0  0  0  0  0  0  0  0  0  0  0
   32.1910   85.9190   75.4550 C   0  0  0  0  0  0  0  0  0  0  0  0
   32.2960   84.8890   76.5810 C   0  0  0  0  0  0  0  0  0  0  0  0
   33.5980   85.1090   77.3370 C   0  0  1  0  0  0  0  0  0  0  0  0
   33.7580   84.0830   78.3230 O   0  0  0  0  0  0  0  0  0  0  0  0
   34.7790   85.0830   76.3630 C   0  0  0  0  0  0  0  0  0  0  0  0
   34.5880   86.0590   75.2020 C   0  0  0  0  0  0  0  0  0  0  0  0
 10 11  1  6
 10 12  1  0
 10 13  1  0
 10  9  1  0
  2  1  2  0
  2  3  1  0
  2  4  1  0
 14 15  1  0
 14  4  1  0
 16 15  1  6
 22 16  1  0
 22 21  1  0
 21 19  1  0
 19 18  1  0
 19 20  1  1
 18 17  1  0
 17 16  1  0
  4  5  1  6
  4  6  1  0
  6  7  1  0
  7  8  1  0
  8  9  1  0
M  CHG  1  10  -1
M  END
$$$$
