6V7F
     RDKit          3D

 20 21  0  0  0  0  0  0  0  0999 V2000
   16.5260    7.0390   24.0630 O   0  0  0  0  0  0  0  0  0  0  0  0
   15.3710    7.4140   23.8220 C   0  0  0  0  0  0  0  0  0  0  0  0
   15.0640    8.5500   23.2300 O   0  0  0  0  0  0  0  0  0  0  0  0
   14.1220    6.5890   24.2160 C   0  0  2  0  0  0  0  0  0  0  0  0
   12.8990    7.2990   23.7170 N   0  0  0  0  0  0  0  0  0  0  0  0
   14.0910    6.5250   25.7580 C   0  0  0  0  0  0  0  0  0  0  0  0
   14.2750    5.0400   26.1910 C   0  0  2  0  0  0  0  0  0  0  0  0
   13.0190    4.4690   26.8760 C   0  0  0  0  0  0  0  0  0  0  0  0
   13.1760    4.9880   28.2930 N   0  0  0  0  0  0  0  0  0  0  0  0
   14.6270    4.8950   28.6390 C   0  0  0  0  0  0  0  0  0  0  0  0
   15.3290    4.8980   27.3080 C   0  0  0  0  0  0  0  0  0  0  0  0
   14.7490    4.3370   24.9020 C   0  0  0  0  0  0  0  0  0  0  0  0
   14.1390    5.0960   23.7210 C   0  0  2  0  0  0  0  0  0  0  0  0
   14.8730    4.8410   22.3980 C   0  0  0  0  0  0  0  0  0  0  0  0
   14.5280    3.5360   21.7030 C   0  0  0  0  0  0  0  0  0  0  0  0
   15.4040    3.2520   20.4850 C   0  0  0  0  0  0  0  0  0  0  0  0
   14.9660    1.8970   19.8350 B   0  0  1  0  0  0  0  0  0  0  0  0
   13.5290    1.8980   19.4890 O   0  0  0  0  0  0  0  0  0  0  0  0
   15.6910    1.6030   18.5640 O   0  0  0  0  0  0  0  0  0  0  0  0
   15.2000    0.7310   20.6980 O   0  0  0  0  0  0  0  0  0  0  0  0
 17 16  1  0
 17 18  1  6
 17 19  1  0
 17 20  1  0
 16 15  1  0
 15 14  1  0
 10  9  1  0
 10 11  1  0
  7  8  1  1
  8  9  1  0
 13 14  1  6
 13  4  1  0
 13 12  1  0
 12  7  1  0
  7  6  1  0
  7 11  1  0
  6  4  1  0
  4  2  1  0
  4  5  1  6
  2  1  2  0
  2  3  1  0
M  CHG  3   5   1   9   1  17  -1
M  END
$$$$
