7K4I
     RDKit          3D

 17 18  0  0  0  0  0  0  0  0999 V2000
   15.0250    3.8310   25.0950 C   0  0  0  0  0  0  0  0  0  0  0  0
   14.5170    4.6430   23.8930 C   0  0  2  0  0  0  0  0  0  0  0  0
   15.1210    4.3840   22.4880 C   0  0  0  0  0  0  0  0  0  0  0  0
   14.8210    3.0580   21.7840 C   0  0  0  0  0  0  0  0  0  0  0  0
   15.3730    2.9460   20.3630 C   0  0  0  0  0  0  0  0  0  0  0  0
   16.8300    6.6520   24.1230 O   0  0  0  0  0  0  0  0  0  0  0  0
   15.6870    6.9490   23.8290 C   0  0  0  0  0  0  0  0  0  0  0  0
   15.3440    7.9420   23.0430 O   0  0  0  0  0  0  0  0  0  0  0  0
   14.5230    6.1350   24.3500 C   0  0  1  0  0  0  0  0  0  0  0  0
   13.3100    3.6770   25.7560 S   0  0  0  0  0  0  0  0  0  0  0  0
   12.9980    4.3150   24.0540 C   0  0  1  0  0  0  0  0  0  0  0  0
   12.1920    5.6120   23.9610 C   0  0  0  0  0  0  0  0  0  0  0  0
   13.2170    6.7070   23.8970 N   0  0  0  0  0  0  0  0  0  0  0  0
   15.0110    1.6320   19.6000 B   0  0  1  0  0  0  0  0  0  0  0  0
   15.3300    0.3500   20.2510 O   0  0  0  0  0  0  0  0  0  0  0  0
   13.5900    1.4980   19.3470 O   0  0  0  0  0  0  0  0  0  0  0  0
   15.6380    1.5590   18.2600 O   0  0  0  0  0  0  0  0  0  0  0  0
 14  5  1  0
 14 15  1  1
 14 16  1  0
 14 17  1  0
  7  6  2  0
  7  8  1  0
  9  7  1  6
  9  2  1  0
  9 13  1  0
 11 12  1  1
 12 13  1  0
 11  2  1  0
 11 10  1  0
  1  2  1  0
  1 10  1  0
  2  3  1  6
  3  4  1  0
  4  5  1  0
M  CHG  1  14  -1
M  END
$$$$
