5eko_ligand
     RDKit          3D

 46 49  0  0  0  0  0  0  0  0999 V2000
  -13.1760   12.4390  -26.4470 O   0  0  0  0  0  0  0  0  0  0  0  0
  -13.9890   11.5510  -26.2600 C   0  0  0  0  0  0  0  0  0  0  0  0
  -14.7970   11.6150  -24.9930 C   0  0  0  0  0  0  0  0  0  0  0  0
  -15.1650   12.8490  -24.4820 C   0  0  0  0  0  0  0  0  0  0  0  0
  -15.9120   12.9100  -23.3160 C   0  0  0  0  0  0  0  0  0  0  0  0
  -16.2840   11.7410  -22.6680 C   0  0  0  0  0  0  0  0  0  0  0  0
  -15.1910   10.4580  -24.3300 C   0  0  0  0  0  0  0  0  0  0  0  0
  -15.9400   10.4770  -23.1450 C   0  0  0  0  0  0  0  0  0  0  0  0
  -16.3010    9.3490  -22.5260 N   0  0  0  0  0  0  0  0  0  0  0  0
  -15.9470    8.1660  -23.0150 C   0  0  0  0  0  0  0  0  0  0  0  0
  -17.0270    9.3230  -21.4020 C   0  0  0  0  0  0  0  0  0  0  0  0
  -17.1590    8.0020  -21.1080 N   0  0  0  0  0  0  0  0  0  0  0  0
  -16.5120    7.3190  -22.0820 C   0  0  0  0  0  0  0  0  0  0  0  0
  -16.2800    5.8610  -22.3650 C   0  0  2  0  0  0  0  0  0  0  0  0
  -14.1980   10.5490  -27.1220 N   0  0  0  0  0  0  0  0  0  0  0  0
  -13.5370   10.3660  -28.3020 C   0  0  0  0  0  0  0  0  0  0  0  0
  -12.1790   10.6470  -28.4470 C   0  0  0  0  0  0  0  0  0  0  0  0
  -11.5250   10.4310  -29.6580 C   0  0  0  0  0  0  0  0  0  0  0  0
  -12.2250    9.9140  -30.7410 C   0  0  0  0  0  0  0  0  0  0  0  0
  -13.5690    9.5960  -30.5980 C   0  0  0  0  0  0  0  0  0  0  0  0
  -14.2190    9.8220  -29.3870 C   0  0  0  0  0  0  0  0  0  0  0  0
  -11.5920    9.6740  -31.9310 O   0  0  0  0  0  0  0  0  0  0  0  0
  -11.1440   10.6670  -32.7590 C   0  0  0  0  0  0  0  0  0  0  0  0
  -11.7210   11.9330  -32.7530 C   0  0  0  0  0  0  0  0  0  0  0  0
  -11.2260   12.9070  -33.6120 C   0  0  0  0  0  0  0  0  0  0  0  0
  -10.2130   12.6260  -34.4470 N   0  0  0  0  0  0  0  0  0  0  0  0
   -9.6440   11.4170  -34.4770 C   0  0  0  0  0  0  0  0  0  0  0  0
  -10.0940   10.4030  -33.6320 C   0  0  0  0  0  0  0  0  0  0  0  0
  -14.8720   13.7570  -24.9880 H   0  0  0  0  0  0  0  0  0  0  0  0
  -16.2050   13.8680  -22.9120 H   0  0  0  0  0  0  0  0  0  0  0  0
  -16.8620   11.8130  -21.7590 H   0  0  0  0  0  0  0  0  0  0  0  0
  -14.9080    9.5030  -24.7460 H   0  0  0  0  0  0  0  0  0  0  0  0
  -15.3740    7.9310  -23.9000 H   0  0  0  0  0  0  0  0  0  0  0  0
  -17.4210   10.1640  -20.8510 H   0  0  0  0  0  0  0  0  0  0  0  0
  -14.9050    9.8700  -26.8790 H   0  0  0  0  0  0  0  0  0  0  0  0
  -11.6250   11.0390  -27.6070 H   0  0  0  0  0  0  0  0  0  0  0  0
  -10.4750   10.6650  -29.7550 H   0  0  0  0  0  0  0  0  0  0  0  0
  -14.1130    9.1720  -31.4290 H   0  0  0  0  0  0  0  0  0  0  0  0
  -15.2650    9.5720  -29.2880 H   0  0  0  0  0  0  0  0  0  0  0  0
  -12.5430   12.1560  -32.0890 H   0  0  0  0  0  0  0  0  0  0  0  0
  -11.6590   13.8960  -33.6080 H   0  0  0  0  0  0  0  0  0  0  0  0
   -8.8300   11.2240  -35.1600 H   0  0  0  0  0  0  0  0  0  0  0  0
   -9.6340    9.4260  -33.6550 H   0  0  0  0  0  0  0  0  0  0  0  0
  -15.4560    5.7540  -23.0710 H   0  0  0  0  0  0  0  0  0  0  0  0
  -17.1830    5.4260  -22.7920 H   0  0  0  0  0  0  0  0  0  0  0  0
  -16.0320    5.3460  -21.4370 H   0  0  0  0  0  0  0  0  0  0  0  0
  1  2  2  0
  2  3  1  0
  2 15  1  0
  3  4  2  0
  3  7  1  0
  4  5  1  0
  4 29  1  0
  5  6  2  0
  5 30  1  0
  6  8  1  0
  6 31  1  0
  7  8  2  0
  7 32  1  0
  8  9  1  0
  9 10  1  0
  9 11  1  0
 10 13  2  0
 10 33  1  0
 11 12  2  0
 11 34  1  0
 12 13  1  0
 13 14  1  0
 14 44  1  6
 14 45  1  0
 14 46  1  0
 15 16  1  0
 15 35  1  0
 16 17  2  0
 16 21  1  0
 17 18  1  0
 17 36  1  0
 18 19  2  0
 18 37  1  0
 19 20  1  0
 19 22  1  0
 20 21  2  0
 20 38  1  0
 21 39  1  0
 22 23  1  0
 23 24  2  0
 23 28  1  0
 24 25  1  0
 24 40  1  0
 25 26  2  0
 25 41  1  0
 26 27  1  0
 27 28  2  0
 27 42  1  0
 28 43  1  0
M  END
