7KLM
     RDKit          3D

 23 23  0  0  0  0  0  0  0  0999 V2000
   12.4740    3.8770   25.7240 N   0  0  0  0  0  0  0  0  0  0  0  0
   12.8350    2.6870   26.2230 C   0  0  0  0  0  0  0  0  0  0  0  0
   12.4610    4.1790   24.2950 C   0  0  1  0  0  0  0  0  0  0  0  0
   11.5450    5.3550   23.9620 C   0  0  0  0  0  0  0  0  0  0  0  0
   13.8630    6.0730   24.1930 C   0  0  1  0  0  0  0  0  0  0  0  0
   14.9660    6.9860   23.5640 C   0  0  0  0  0  0  0  0  0  0  0  0
   14.0660    4.3410   22.2600 C   0  0  0  0  0  0  0  0  0  0  0  0
   14.7350    7.9890   22.9100 O   0  0  0  0  0  0  0  0  0  0  0  0
   16.1690    6.5920   23.8970 O   0  0  0  0  0  0  0  0  0  0  0  0
   12.5010    6.4930   23.7200 N   0  0  0  0  0  0  0  0  0  0  0  0
   13.8540    4.5810   23.7660 C   0  0  2  0  0  0  0  0  0  0  0  0
   14.1880    2.8920   21.7770 C   0  0  0  0  0  0  0  0  0  0  0  0
   14.7200    2.7860   20.3460 C   0  0  0  0  0  0  0  0  0  0  0  0
   14.3290    1.4350   19.6480 B   0  0  2  0  0  0  0  0  0  0  0  0
   14.9250    1.3920   18.3090 O   0  0  0  0  0  0  0  0  0  0  0  0
   12.8680    1.2520   19.4010 O   0  0  0  0  0  0  0  0  0  0  0  0
   14.8070    0.2140   20.3420 O   0  0  0  0  0  0  0  0  0  0  0  0
   12.7130    1.6290   25.6080 O   0  0  0  0  0  0  0  0  0  0  0  0
   13.5450    2.6970   27.6670 C   0  0  1  0  0  0  0  0  0  0  0  0
   14.5000    3.8030   27.8160 N   0  0  0  0  0  0  0  0  0  0  0  0
   12.5100    2.6530   28.8620 C   0  0  2  0  0  0  0  0  0  0  0  0
   13.2150    2.7870   30.2140 C   0  0  0  0  0  0  0  0  0  0  0  0
   11.6980    1.3600   28.8320 C   0  0  0  0  0  0  0  0  0  0  0  0
 14 13  1  0
 14 15  1  6
 14 16  1  0
 14 17  1  0
 21 23  1  1
 21 19  1  0
 21 22  1  0
 11  7  1  6
  7 12  1  0
 12 13  1  0
 19  2  1  0
 19 20  1  1
  2  1  1  0
  2 18  2  0
  3  1  1  1
  3  4  1  0
  3 11  1  0
  4 10  1  0
  5  6  1  6
  5 10  1  0
  5 11  1  0
  6  8  2  0
  6  9  1  0
M  CHG  1  14  -1
M  END
$$$$
