obj01
  PyMOL2.5          3D                             0

 25 27  0  0  0  0  0  0  0  0999 V2000
   16.8410   17.0520   21.2440 C   0  0  0  0  0  0  0  0  0  0  0  0
   15.9290   16.7050   22.1700 N   0  0  0  0  0  0  0  0  0  0  0  0
   19.5830   17.7870   23.5410 O   0  0  0  0  0  0  0  0  0  0  0  0
   18.1280   17.4320   21.6660 C   0  0  0  0  0  0  0  0  0  0  0  0
   19.4200   18.0390   18.2630 N   0  0  0  0  0  0  0  0  0  0  0  0
   19.1250   17.8040   20.7470 C   0  0  0  0  0  0  0  0  0  0  0  0
   19.0480   18.0790   16.0260 N   0  0  0  0  0  0  0  0  0  0  0  0
   18.7570   17.7600   19.3990 C   0  0  0  0  0  0  0  0  0  0  0  0
   17.4700   17.4840   17.6130 N   0  0  0  0  0  0  0  0  0  0  0  0
   18.6570   17.8790   17.2550 C   0  0  0  0  0  0  0  0  0  0  0  0
   17.3960   17.0670   23.9420 N   0  0  0  0  0  0  0  0  0  0  0  0
   18.1380   17.8710   14.9000 C   0  0  0  0  0  0  0  0  0  0  0  0
   17.4930   17.3930   18.9710 C   0  0  0  0  0  0  0  0  0  0  0  0
   16.5030   17.0230   19.8840 C   0  0  0  0  0  0  0  0  0  0  0  0
   18.3510   17.4180   23.0470 C   0  0  0  0  0  0  0  0  0  0  0  0
   16.1760   16.7050   23.4930 C   0  0  0  0  0  0  0  0  0  0  0  0
   20.3850   18.3334   18.2154 H   0  0  0  0  0  0  0  0  0  0  0  0
   20.1222   18.1076   21.0656 H   0  0  0  0  0  0  0  0  0  0  0  0
   19.9950   18.3825   15.8495 H   0  0  0  0  0  0  0  0  0  0  0  0
   17.2585   18.5030   15.0228 H   0  0  0  0  0  0  0  0  0  0  0  0
   18.6442   18.1306   13.9702 H   0  0  0  0  0  0  0  0  0  0  0  0
   17.8317   16.8254   14.8680 H   0  0  0  0  0  0  0  0  0  0  0  0
   15.5086   16.7240   19.5526 H   0  0  0  0  0  0  0  0  0  0  0  0
   17.5947   17.0762   24.9322 H   0  0  0  0  0  0  0  0  0  0  0  0
   15.3961   16.4146   24.1969 H   0  0  0  0  0  0  0  0  0  0  0  0
  1  4  2  0  0  0  0
  1  2  1  0  0  0  0
  2 16  2  0  0  0  0
  4  6  1  0  0  0  0
  4 15  1  0  0  0  0
  5 17  1  0  0  0  0
  6 18  1  0  0  0  0
  7 10  1  0  0  0  0
  7 12  1  0  0  0  0
  7 19  1  0  0  0  0
  5  8  1  0  0  0  0
  6  8  2  0  0  0  0
  8 13  1  0  0  0  0
  5 10  1  0  0  0  0
  9 10  2  0  0  0  0
 11 24  1  0  0  0  0
 12 20  1  0  0  0  0
 12 21  1  0  0  0  0
 12 22  1  0  0  0  0
  9 13  1  0  0  0  0
 13 14  2  0  0  0  0
  1 14  1  0  0  0  0
 14 23  1  0  0  0  0
  3 15  2  0  0  0  0
 11 15  1  0  0  0  0
 11 16  1  0  0  0  0
 16 25  1  0  0  0  0
M  END
$$$$
