7FLD
     RDKit          3D

 16 16  0  0  0  0  0  0  0  0999 V2000
   25.3350   16.1460   31.9000 C   0  0  0  0  0  0  0  0  0  0  0  0
   25.0510   16.5590   30.4790 C   0  0  0  0  0  0  0  0  0  0  0  0
   23.9060   16.6240   33.8080 C   0  0  0  0  0  0  0  0  0  0  0  0
   23.5280   24.0730   35.5520 O   0  0  0  0  0  0  0  0  0  0  0  0
   23.4710   21.2620   34.1990 C   0  0  0  0  0  0  0  0  0  0  0  0
   25.2730   20.8760   35.6950 C   0  0  0  0  0  0  0  0  0  0  0  0
   25.3670   18.3600   32.8290 C   0  0  0  0  0  0  0  0  0  0  0  0
   25.6440   19.7670   34.9140 C   0  0  0  0  0  0  0  0  0  0  0  0
   24.9300   19.4270   33.7840 C   0  0  0  0  0  0  0  0  0  0  0  0
   23.8380   20.1580   33.4410 C   0  0  0  0  0  0  0  0  0  0  0  0
   26.1550   18.6460   31.9640 O   0  0  0  0  0  0  0  0  0  0  0  0
   24.8730   17.0900   32.8590 N   0  0  0  0  0  0  0  0  0  0  0  0
   24.5320   15.9920   35.0590 C   0  0  0  0  0  0  0  0  0  0  0  0
   24.1760   21.6390   35.3170 C   0  0  0  0  0  0  0  0  0  0  0  0
   23.7270   22.8800   36.0830 B   0  0  0  0  0  0  0  0  0  0  0  0
   23.4540   22.9310   37.3630 O   0  0  0  0  0  0  0  0  0  0  0  0
 15  4  1  0
 15 14  1  0
 15 16  1  0
 14  5  2  0
 14  6  1  0
  5 10  1  0
 13  3  1  0
 10  9  2  0
  9  7  1  0
  9  8  1  0
  8  6  2  0
  7 11  2  0
  7 12  1  0
  1  2  1  0
  1 12  1  0
  3 12  1  0
M  END
$$$$
