4IXU
     RDKit          3D

 30 32  0  0  0  0  0  0  0  0999 V2000
   28.0740   86.5840   77.0060 Cl  0  0  0  0  0  0  0  0  0  0  0  0
   29.3400   85.3200   77.0540 C   0  0  0  0  0  0  0  0  0  0  0  0
   29.7090   84.6680   78.2260 C   0  0  0  0  0  0  0  0  0  0  0  0
   28.9470   85.0340   79.8060 Cl  0  0  0  0  0  0  0  0  0  0  0  0
   30.6940   83.6900   78.2070 C   0  0  0  0  0  0  0  0  0  0  0  0
   31.3110   83.3630   77.0150 C   0  0  0  0  0  0  0  0  0  0  0  0
   29.9590   84.9950   75.8630 C   0  0  0  0  0  0  0  0  0  0  0  0
   30.9360   84.0180   75.8520 C   0  0  0  0  0  0  0  0  0  0  0  0
   31.6250   83.6640   74.5740 C   0  0  0  0  0  0  0  0  0  0  0  0
   33.0360   83.9790   74.8470 N   0  0  0  0  0  0  0  0  0  0  0  0
   33.9610   83.6570   73.7690 C   0  0  2  0  0  0  0  0  0  0  0  0
   35.2770   84.1780   74.3310 C   0  0  0  0  0  0  0  0  0  0  0  0
   34.8780   85.2030   75.3930 C   0  0  0  0  0  0  0  0  0  0  0  0
   33.3800   85.3670   75.2240 C   0  0  1  0  0  0  0  0  0  0  0  0
   33.2220   86.4310   74.1320 C   0  0  0  0  0  0  0  0  0  0  0  0
   33.6050   84.4440   72.5160 C   0  0  0  0  0  0  0  0  0  0  0  0
   33.0660   85.8740   72.7150 C   0  0  2  0  0  0  0  0  0  0  0  0
   33.4670   86.7700   71.5370 C   0  0  2  0  0  0  0  0  0  0  0  0
   33.8640   88.2020   71.8480 C   0  0  0  0  0  0  0  0  0  0  0  0
   34.9410   88.4580   72.4460 O   0  0  0  0  0  0  0  0  0  0  0  0
   33.0940   89.1130   71.4530 O   0  0  0  0  0  0  0  0  0  0  0  0
   32.1930   86.8180   70.8090 N   0  0  0  0  0  0  0  0  0  0  0  0
   34.5730   86.0770   70.7310 C   0  0  0  0  0  0  0  0  0  0  0  0
   35.0260   86.8270   69.4990 C   0  0  0  0  0  0  0  0  0  0  0  0
   36.1920   86.1360   68.7810 C   0  0  0  0  0  0  0  0  0  0  0  0
   36.6220   87.0270   67.6120 C   0  0  0  0  0  0  0  0  0  0  0  0
   37.1400   86.1440   66.4030 B   0  0  1  0  0  0  0  0  0  0  0  0
   37.6970   87.1970   65.4150 O   0  0  0  0  0  0  0  0  0  0  0  0
   38.3580   85.3110   66.6920 O   0  0  0  0  0  0  0  0  0  0  0  0
   36.0940   85.5300   65.5210 O   0  0  0  0  0  0  0  0  0  0  0  0
 27 26  1  0
 27 28  1  6
 27 29  1  0
 27 30  1  0
 19 18  1  0
 19 20  2  0
 19 21  1  0
 26 25  1  0
 14 15  1  6
 17 15  1  1
 14 10  1  0
 14 13  1  0
 11 10  1  0
 11 12  1  6
 11 16  1  0
 16 17  1  0
 12 13  1  0
  9  8  1  0
 10  9  1  6
  8  6  1  0
  8  7  2  0
  6  5  2  0
  5  3  1  0
  3  2  2  0
  3  4  1  0
  2  1  1  0
  2  7  1  0
 18 17  1  0
 18 22  1  6
 18 23  1  0
 23 24  1  0
 24 25  1  0
M  CHG  1  27  -1
M  END
$$$$
