5U4C
     RDKit          3D

 20 21  0  0  0  0  0  0  0  0999 V2000
   21.4840   87.0250   85.1940 C   0  0  0  0  0  0  0  0  0  0  0  0
   21.6630   85.7090   85.5820 C   0  0  0  0  0  0  0  0  0  0  0  0
   21.6820   85.3780   86.9280 C   0  0  0  0  0  0  0  0  0  0  0  0
   21.5050   86.3780   87.8740 C   0  0  0  0  0  0  0  0  0  0  0  0
   21.3410   87.6930   87.4750 C   0  0  0  0  0  0  0  0  0  0  0  0
   21.3220   88.0230   86.1360 C   0  0  0  0  0  0  0  0  0  0  0  0
   21.5320   86.0990   89.3590 C   0  0  0  0  0  0  0  0  0  0  0  0
   22.3950   85.2680   89.9540 C   0  0  0  0  0  0  0  0  0  0  0  0
   22.5010   84.9890   91.4370 C   0  0  0  0  0  0  0  0  0  0  0  0
   23.6120   84.3010   91.8930 C   0  0  0  0  0  0  0  0  0  0  0  0
   23.7660   84.0410   93.2420 C   0  0  0  0  0  0  0  0  0  0  0  0
   22.8110   84.4770   94.1430 C   0  0  0  0  0  0  0  0  0  0  0  0
   21.7000   85.1750   93.6940 C   0  0  0  0  0  0  0  0  0  0  0  0
   21.5470   85.4380   92.3380 C   0  0  0  0  0  0  0  0  0  0  0  0
   21.8400   84.6570   84.5130 C   0  0  0  0  0  0  0  0  0  0  0  0
   24.2850   83.6990   96.2170 O   0  0  0  0  0  0  0  0  0  0  0  0
   21.9240   84.3090   96.6580 O   0  0  0  0  0  0  0  0  0  0  0  0
   22.1470   83.4670   84.8140 O   0  0  0  0  0  0  0  0  0  0  0  0
   21.6820   84.9830   83.3050 O   0  0  0  0  0  0  0  0  0  0  0  0
   23.0130   84.1480   95.7470 B   0  0  0  0  0  0  0  0  0  0  0  0
 20 17  1  0
 20 12  1  0
 20 16  1  0
  1  2  2  0
  1  6  1  0
  2  3  1  0
  2 15  1  0
  3  4  2  0
  4  5  1  0
  4  7  1  0
  5  6  2  0
  7  8  2  3
  8  9  1  0
  9 10  2  0
  9 14  1  0
 10 11  1  0
 11 12  2  0
 12 13  1  0
 13 14  2  0
 15 18  2  0
 15 19  1  0
M  END
$$$$
