7ONT_ligand
     RDKit          3D

 58 61  0  0  0  0  0  0  0  0999 V2000
   16.7950   44.4100    6.4010 C   0  0  1  0  0  0  0  0  0  0  0  0
   15.4710   43.6970    6.2940 C   0  0  0  0  0  0  0  0  0  0  0  0
   15.0420   42.8130    7.2240 C   0  0  0  0  0  0  0  0  0  0  0  0
   11.3000   40.9030    6.7490 C   0  0  0  0  0  0  0  0  0  0  0  0
   11.7750   41.8100    5.8020 C   0  0  0  0  0  0  0  0  0  0  0  0
   13.0060   42.4290    5.9870 C   0  0  0  0  0  0  0  0  0  0  0  0
   14.6550   43.9900    5.1230 C   0  0  0  0  0  0  0  0  0  0  0  0
    9.9770   40.2060    6.5550 C   0  0  1  0  0  0  0  0  0  0  0  0
    8.8470   41.1570    8.4760 C   0  0  2  0  0  0  0  0  0  0  0  0
    7.6090   41.8850    8.9460 C   0  0  1  0  0  0  0  0  0  0  0  0
    6.3110   40.7250    7.2130 C   0  0  1  0  0  0  0  0  0  0  0  0
    7.5920   40.0360    6.7550 C   0  0  1  0  0  0  0  0  0  0  0  0
    5.2260   41.3440    9.3480 C   0  0  0  0  0  0  0  0  0  0  0  0
    2.9650   41.8190   10.8070 C   0  0  0  0  0  0  0  0  0  0  0  0
    5.2460   41.5590   10.7170 C   0  0  0  0  0  0  0  0  0  0  0  0
    1.7270   42.0620   11.6250 C   0  0  0  0  0  0  0  0  0  0  0  0
    0.7950   42.4420   13.8350 C   0  0  2  0  0  0  0  0  0  0  0  0
    0.6140   42.0620   11.1060 O   0  0  0  0  0  0  0  0  0  0  0  0
    1.9160   42.2590   12.9260 N   0  0  0  0  0  0  0  0  0  0  0  0
    2.8410   41.6120    9.4410 C   0  0  0  0  0  0  0  0  0  0  0  0
    3.9870   41.3780    8.7110 C   0  0  0  0  0  0  0  0  0  0  0  0
    4.1450   41.7890   11.4480 N   0  0  0  0  0  0  0  0  0  0  0  0
    6.4090   41.1050    8.6280 N   0  0  0  0  0  0  0  0  0  0  0  0
    8.7670   40.8810    7.0300 N   0  0  2  0  0  0  0  0  0  0  0  0
   12.0900   40.6170    7.8610 C   0  0  0  0  0  0  0  0  0  0  0  0
   13.3120   41.2320    8.0440 C   0  0  0  0  0  0  0  0  0  0  0  0
   13.7960   42.1460    7.1070 C   0  0  0  0  0  0  0  0  0  0  0  0
   13.4730   43.3340    5.0540 N   0  0  0  0  0  0  0  0  0  0  0  0
   14.9770   44.7710    4.2320 O   0  0  0  0  0  0  0  0  0  0  0  0
   17.7070   43.9110    7.5240 C   0  0  2  0  0  0  0  0  0  0  0  0
   17.3230   44.2860    5.4560 H   0  0  0  0  0  0  0  0  0  0  0  0
   16.6050   45.4720    6.5550 H   0  0  0  0  0  0  0  0  0  0  0  0
   15.6670   42.6090    8.0810 H   0  0  0  0  0  0  0  0  0  0  0  0
   11.1860   42.0320    4.9240 H   0  0  0  0  0  0  0  0  0  0  0  0
    9.8540   40.0360    5.4850 H   0  0  0  0  0  0  0  0  0  0  0  0
   10.0340   39.2340    7.0450 H   0  0  0  0  0  0  0  0  0  0  0  0
    8.9350   40.2150    9.0160 H   0  0  0  0  0  0  0  0  0  0  0  0
    9.7240   41.7710    8.6770 H   0  0  0  0  0  0  0  0  0  0  0  0
    7.6660   42.0330   10.0240 H   0  0  0  0  0  0  0  0  0  0  0  0
    7.5510   42.8550    8.4510 H   0  0  0  0  0  0  0  0  0  0  0  0
    6.1500   41.6200    6.6120 H   0  0  0  0  0  0  0  0  0  0  0  0
    5.4690   40.0460    7.0800 H   0  0  0  0  0  0  0  0  0  0  0  0
    7.6990   39.0910    7.2870 H   0  0  0  0  0  0  0  0  0  0  0  0
    7.5320   39.8410    5.6840 H   0  0  0  0  0  0  0  0  0  0  0  0
    6.2000   41.5400   11.2230 H   0  0  0  0  0  0  0  0  0  0  0  0
    2.8570   42.2820   13.2910 H   0  0  0  0  0  0  0  0  0  0  0  0
    1.8730   41.6340    8.9620 H   0  0  0  0  0  0  0  0  0  0  0  0
    3.9240   41.2210    7.6440 H   0  0  0  0  0  0  0  0  0  0  0  0
    8.6640   41.7550    6.5350 H   0  0  0  0  0  0  0  0  0  0  0  0
   11.7400   39.9020    8.5910 H   0  0  0  0  0  0  0  0  0  0  0  0
   13.8990   41.0040    8.9210 H   0  0  0  0  0  0  0  0  0  0  0  0
   12.8840   43.5220    4.2550 H   0  0  0  0  0  0  0  0  0  0  0  0
    1.1680   42.5690   14.8510 H   0  0  0  0  0  0  0  0  0  0  0  0
    0.1470   41.5670   13.7930 H   0  0  0  0  0  0  0  0  0  0  0  0
    0.2300   43.3270   13.5420 H   0  0  0  0  0  0  0  0  0  0  0  0
   18.6610   44.4360    7.4780 H   0  0  0  0  0  0  0  0  0  0  0  0
   17.8750   42.8400    7.4060 H   0  0  0  0  0  0  0  0  0  0  0  0
   17.2340   44.1010    8.4880 H   0  0  0  0  0  0  0  0  0  0  0  0
  1  2  1  0
  1 30  1  0
  1 31  1  6
  1 32  1  0
  2  3  2  0
  2  7  1  0
  3 27  1  0
  3 33  1  0
  4  5  2  0
  4  8  1  0
  4 25  1  0
  5  6  1  0
  5 34  1  0
  6 27  2  0
  6 28  1  0
  7 28  1  0
  7 29  2  0
  8 24  1  0
  8 35  1  6
  8 36  1  0
  9 10  1  0
  9 24  1  0
  9 37  1  1
  9 38  1  0
 10 23  1  0
 10 39  1  1
 10 40  1  0
 11 12  1  0
 11 23  1  0
 11 41  1  6
 11 42  1  0
 12 24  1  0
 12 43  1  1
 12 44  1  0
 13 15  1  0
 13 21  2  0
 13 23  1  0
 14 16  1  0
 14 20  2  0
 14 22  1  0
 15 22  2  0
 15 45  1  0
 16 18  2  0
 16 19  1  0
 17 19  1  0
 17 53  1  1
 17 54  1  0
 17 55  1  0
 19 46  1  0
 20 21  1  0
 20 47  1  0
 21 48  1  0
 24 49  1  6
 25 26  2  0
 25 50  1  0
 26 27  1  0
 26 51  1  0
 28 52  1  0
 30 56  1  1
 30 57  1  0
 30 58  1  0
M  CHG  1  24   1
M  END
