4IE1
     RDKit          3D

 17 16  0  0  0  0  0  0  0  0999 V2000
   19.3200   15.5570   12.7050 O   0  0  0  0  0  0  0  0  0  0  0  0
   20.0240   16.0550   11.7800 C   0  0  0  0  0  0  0  0  0  0  0  0
   19.9130   15.6230   10.6100 O   0  0  0  0  0  0  0  0  0  0  0  0
   21.0450   17.1620   12.0900 C   0  0  2  0  0  0  0  0  0  0  0  0
   20.9260   17.4390   13.5120 N   0  0  0  0  0  0  0  0  0  0  0  0
   20.7760   18.4430   11.3170 C   0  0  0  0  0  0  0  0  0  0  0  0
   19.4100   19.0270   11.6540 C   0  0  0  0  0  0  0  0  0  0  0  0
   19.0560   20.2060   10.7570 C   0  0  0  0  0  0  0  0  0  0  0  0
   17.8410   20.8070   11.2460 O   0  0  0  0  0  0  0  0  0  0  0  0
   22.4600   16.7100   11.7230 C   0  0  0  0  0  0  0  0  0  0  0  0
   22.7910   15.2830   12.1770 C   0  0  0  0  0  0  0  0  0  0  0  0
   24.2320   14.8380   11.8670 C   0  0  0  0  0  0  0  0  0  0  0  0
   24.4340   13.3380   12.1770 C   0  0  0  0  0  0  0  0  0  0  0  0
   25.9030   12.9040   12.6070 B   0  0  1  0  0  0  0  0  0  0  0  0
   26.7460   13.2950   11.4170 O   0  0  0  0  0  0  0  0  0  0  0  0
   26.6060   13.5860   13.7260 O   0  0  0  0  0  0  0  0  0  0  0  0
   26.2610   11.4390   12.6720 O   0  0  0  0  0  0  0  0  0  0  0  0
 14 13  1  0
 14 15  1  6
 14 16  1  0
 14 17  1  0
  2  1  2  0
  2  3  1  0
  2  4  1  0
  6  4  1  0
  6  7  1  0
  7  8  1  0
  8  9  1  0
  4  5  1  1
  4 10  1  0
 10 11  1  0
 11 12  1  0
 12 13  1  0
M  CHG  1  14  -1
M  END
$$$$
