5byz_ligand
     RDKit          3D

 67 70  0  0  0  0  0  0  0  0999 V2000
    3.1820  -40.0610   -9.4140 C   0  0  1  0  0  0  0  0  0  0  0  0
    2.0090  -40.9070   -9.9340 C   0  0  1  0  0  0  0  0  0  0  0  0
    1.3720  -41.7510   -8.8300 C   0  0  2  0  0  0  0  0  0  0  0  0
    0.3060  -39.0170  -10.0630 C   0  0  0  0  0  0  0  0  0  0  0  0
    0.3240  -38.5810   -8.6200 C   0  0  1  0  0  0  0  0  0  0  0  0
   -0.2430  -39.0510  -12.1380 C   0  0  0  0  0  0  0  0  0  0  0  0
    2.0250  -43.0660  -13.5990 C   0  0  0  0  0  0  0  0  0  0  0  0
    2.0540  -42.7460  -14.8890 N   0  0  0  0  0  0  0  0  0  0  0  0
    1.1860  -40.6210  -14.3800 C   0  0  0  0  0  0  0  0  0  0  0  0
    2.5140  -44.9780  -12.0330 C   0  0  0  0  0  0  0  0  0  0  0  0
    3.3270  -46.1250  -11.9660 C   0  0  0  0  0  0  0  0  0  0  0  0
    2.6870  -46.5040   -9.6620 C   0  0  0  0  0  0  0  0  0  0  0  0
    1.7650  -44.6260  -10.9070 C   0  0  0  0  0  0  0  0  0  0  0  0
    2.7080  -47.3130   -8.4080 C   0  0  0  0  0  0  0  0  0  0  0  0
    1.8840  -47.0300   -7.5390 O   0  0  0  0  0  0  0  0  0  0  0  0
    3.5490  -49.2580   -7.0640 C   0  0  1  0  0  0  0  0  0  0  0  0
    5.9560  -47.6210   -4.6870 C   0  0  1  0  0  0  0  0  0  0  0  0
    6.0240  -46.2590   -4.0010 C   0  0  1  0  0  0  0  0  0  0  0  0
    4.8590  -46.1180   -3.0260 C   0  0  1  0  0  0  0  0  0  0  0  0
    3.5850  -46.2100   -3.8530 C   0  0  2  0  0  0  0  0  0  0  0  0
    3.5320  -47.6040   -4.4700 C   0  0  1  0  0  0  0  0  0  0  0  0
    1.0160  -40.0340  -10.6160 N   0  0  0  0  0  0  0  0  0  0  0  0
   -0.4340  -38.4420  -10.9660 N   0  0  0  0  0  0  0  0  0  0  0  0
    0.6770  -40.0510  -11.9670 C   0  0  0  0  0  0  0  0  0  0  0  0
    1.1650  -40.9680  -13.0190 C   0  0  0  0  0  0  0  0  0  0  0  0
    1.6030  -42.2050  -12.6910 N   0  0  0  0  0  0  0  0  0  0  0  0
    1.6580  -41.5490  -15.2930 C   0  0  0  0  0  0  0  0  0  0  0  0
    0.7920  -39.4140  -14.8300 F   0  0  0  0  0  0  0  0  0  0  0  0
    2.5000  -44.3210  -13.2730 N   0  0  0  0  0  0  0  0  0  0  0  0
    3.4110  -46.8740  -10.8140 C   0  0  0  0  0  0  0  0  0  0  0  0
    1.8490  -45.3760   -9.7480 C   0  0  0  0  0  0  0  0  0  0  0  0
    3.5550  -48.3720   -8.2450 N   0  0  0  0  0  0  0  0  0  0  0  0
    4.7060  -49.0600   -6.0840 C   0  0  2  0  0  0  0  0  0  0  0  0
    4.6730  -47.7650   -5.3920 N   0  0  2  0  0  0  0  0  0  0  0  0
    2.4080  -41.5940  -10.6810 H   0  0  0  0  0  0  0  0  0  0  0  0
   -0.7320  -38.7970  -13.0670 H   0  0  0  0  0  0  0  0  0  0  0  0
    3.8960  -46.4230  -12.8350 H   0  0  0  0  0  0  0  0  0  0  0  0
    1.1170  -43.7630  -10.9420 H   0  0  0  0  0  0  0  0  0  0  0  0
    2.6180  -49.0890   -6.5230 H   0  0  0  0  0  0  0  0  0  0  0  0
    3.5630  -50.2920   -7.4090 H   0  0  0  0  0  0  0  0  0  0  0  0
    6.7730  -47.7050   -5.4040 H   0  0  0  0  0  0  0  0  0  0  0  0
    6.0480  -48.4080   -3.9390 H   0  0  0  0  0  0  0  0  0  0  0  0
    6.9650  -46.1740   -3.4570 H   0  0  0  0  0  0  0  0  0  0  0  0
    5.9660  -45.4710   -4.7520 H   0  0  0  0  0  0  0  0  0  0  0  0
    4.8870  -46.9200   -2.2890 H   0  0  0  0  0  0  0  0  0  0  0  0
    4.9080  -45.1510   -2.5250 H   0  0  0  0  0  0  0  0  0  0  0  0
    3.5980  -45.4560   -4.6400 H   0  0  0  0  0  0  0  0  0  0  0  0
    2.7170  -46.0580   -3.2110 H   0  0  0  0  0  0  0  0  0  0  0  0
    3.5900  -48.3550   -3.6820 H   0  0  0  0  0  0  0  0  0  0  0  0
    2.5990  -47.7240   -5.0200 H   0  0  0  0  0  0  0  0  0  0  0  0
    1.7030  -41.2950  -16.3420 H   0  0  0  0  0  0  0  0  0  0  0  0
    2.8960  -44.8440  -14.0410 H   0  0  0  0  0  0  0  0  0  0  0  0
    4.0370  -47.7530  -10.7920 H   0  0  0  0  0  0  0  0  0  0  0  0
    1.2590  -45.0900   -8.8900 H   0  0  0  0  0  0  0  0  0  0  0  0
    4.2260  -48.5600   -8.9760 H   0  0  0  0  0  0  0  0  0  0  0  0
    5.6420  -49.1320   -6.6370 H   0  0  0  0  0  0  0  0  0  0  0  0
    4.6760  -49.8560   -5.3400 H   0  0  0  0  0  0  0  0  0  0  0  0
    4.6160  -47.0380   -6.0910 H   0  0  0  0  0  0  0  0  0  0  0  0
    3.6020  -39.4790  -10.2340 H   0  0  0  0  0  0  0  0  0  0  0  0
    2.8260  -39.3870   -8.6350 H   0  0  0  0  0  0  0  0  0  0  0  0
    3.9490  -40.7170   -9.0040 H   0  0  0  0  0  0  0  0  0  0  0  0
    0.5480  -42.3310   -9.2450 H   0  0  0  0  0  0  0  0  0  0  0  0
    0.9950  -41.0960   -8.0440 H   0  0  0  0  0  0  0  0  0  0  0  0
    2.1190  -42.4270   -8.4130 H   0  0  0  0  0  0  0  0  0  0  0  0
   -0.6540  -38.1840   -8.3480 H   0  0  0  0  0  0  0  0  0  0  0  0
    0.5590  -39.4360   -7.9850 H   0  0  0  0  0  0  0  0  0  0  0  0
    1.0800  -37.8080   -8.4830 H   0  0  0  0  0  0  0  0  0  0  0  0
  1  2  1  0
  1 59  1  6
  1 60  1  0
  1 61  1  0
  2  3  1  0
  2 22  1  0
  2 35  1  6
  3 62  1  6
  3 63  1  0
  3 64  1  0
  4  5  1  0
  4 22  1  0
  4 23  2  0
  5 65  1  1
  5 66  1  0
  5 67  1  0
  6 23  1  0
  6 24  2  0
  6 36  1  0
  7  8  2  0
  7 26  1  0
  7 29  1  0
  8 27  1  0
  9 25  1  0
  9 27  2  0
  9 28  1  0
 10 11  2  0
 10 13  1  0
 10 29  1  0
 11 30  1  0
 11 37  1  0
 12 14  1  0
 12 30  2  0
 12 31  1  0
 13 31  2  0
 13 38  1  0
 14 15  2  0
 14 32  1  0
 16 32  1  0
 16 33  1  0
 16 39  1  1
 16 40  1  0
 17 18  1  0
 17 34  1  0
 17 41  1  6
 17 42  1  0
 18 19  1  0
 18 43  1  1
 18 44  1  0
 19 20  1  0
 19 45  1  1
 19 46  1  0
 20 21  1  0
 20 47  1  6
 20 48  1  0
 21 34  1  0
 21 49  1  1
 21 50  1  0
 22 24  1  0
 24 25  1  0
 25 26  2  0
 27 51  1  0
 29 52  1  0
 30 53  1  0
 31 54  1  0
 32 55  1  0
 33 34  1  0
 33 56  1  6
 33 57  1  0
 34 58  1  6
M  CHG  1  34   1
M  END
