6oqo_ligand
     RDKit          3D

 66 71  0  0  0  0  0  0  0  0999 V2000
   20.6120   41.8420  -13.5810 C   0  0  1  0  0  0  0  0  0  0  0  0
   20.2650   40.3810  -13.3210 C   0  0  1  0  0  0  0  0  0  0  0  0
   18.8930   40.6870  -13.9080 C   0  0  1  0  0  0  0  0  0  0  0  0
   21.4870   37.1920  -10.8500 C   0  0  0  0  0  0  0  0  0  0  0  0
   21.1150   39.2370  -13.8640 C   0  0  1  0  0  0  0  0  0  0  0  0
   20.4340   39.7300  -11.9470 C   0  0  1  0  0  0  0  0  0  0  0  0
   21.5300   37.6050  -12.1830 C   0  0  0  0  0  0  0  0  0  0  0  0
   22.4720   36.3320  -10.3830 C   0  0  0  0  0  0  0  0  0  0  0  0
   23.4730   35.9060  -11.2540 C   0  0  0  0  0  0  0  0  0  0  0  0
   19.1860   42.1330  -13.8380 N   0  0  2  0  0  0  0  0  0  0  0  0
   17.5510   42.6690  -15.5950 C   0  0  1  0  0  0  0  0  0  0  0  0
   22.5530   37.1360  -12.9910 C   0  0  0  0  0  0  0  0  0  0  0  0
   24.9550   34.7430   -9.5830 C   0  0  0  0  0  0  0  0  0  0  0  0
   26.1370   33.2560   -8.2870 C   0  0  0  0  0  0  0  0  0  0  0  0
   19.0130   42.7680  -15.1540 C   0  0  1  0  0  0  0  0  0  0  0  0
   25.9120   34.0400   -7.1710 C   0  0  0  0  0  0  0  0  0  0  0  0
   25.1640   35.2270   -7.3120 C   0  0  0  0  0  0  0  0  0  0  0  0
   24.8910   36.1120   -6.1320 C   0  0  0  0  0  0  0  0  0  0  0  0
   25.4780   35.9510   -4.8570 C   0  0  0  0  0  0  0  0  0  0  0  0
   24.0650   37.2130   -6.0410 C   0  0  0  0  0  0  0  0  0  0  0  0
   23.2050   37.7990   -7.1460 C   0  0  1  0  0  0  0  0  0  0  0  0
   21.7400   37.9040   -6.7000 C   0  0  1  0  0  0  0  0  0  0  0  0
   21.5360   39.0770   -5.7440 C   0  0  2  0  0  0  0  0  0  0  0  0
   21.9330   38.6680   -4.3280 C   0  0  1  0  0  0  0  0  0  0  0  0
   23.4480   38.8400   -4.1880 C   0  0  1  0  0  0  0  0  0  0  0  0
   23.7270   39.1680   -7.5990 C   0  0  2  0  0  0  0  0  0  0  0  0
   26.4170   33.6250   -5.9890 F   0  0  0  0  0  0  0  0  0  0  0  0
   23.4720   36.3210  -12.5110 N   0  0  0  0  0  0  0  0  0  0  0  0
   24.5040   35.0370  -10.8690 N   0  0  0  0  0  0  0  0  0  0  0  0
   25.6570   33.6300   -9.4560 N   0  0  0  0  0  0  0  0  0  0  0  0
   24.7180   35.5270   -8.5390 N   0  0  0  0  0  0  0  0  0  0  0  0
   25.0350   36.8790   -4.0600 N   0  0  0  0  0  0  0  0  0  0  0  0
   24.1450   37.6850   -4.7710 N   0  0  0  0  0  0  0  0  0  0  0  0
   20.5640   38.4710  -12.7190 N   0  0  0  0  0  0  0  0  0  0  0  0
   21.0240   42.3620  -12.7160 H   0  0  0  0  0  0  0  0  0  0  0  0
   21.2270   41.9690  -14.4720 H   0  0  0  0  0  0  0  0  0  0  0  0
   18.7480   40.3110  -14.9210 H   0  0  0  0  0  0  0  0  0  0  0  0
   18.0830   40.3960  -13.2390 H   0  0  0  0  0  0  0  0  0  0  0  0
   20.7010   37.5350  -10.1940 H   0  0  0  0  0  0  0  0  0  0  0  0
   20.8280   38.8710  -14.8500 H   0  0  0  0  0  0  0  0  0  0  0  0
   22.1850   39.4230  -13.7750 H   0  0  0  0  0  0  0  0  0  0  0  0
   21.3240   40.0320  -11.3950 H   0  0  0  0  0  0  0  0  0  0  0  0
   19.5270   39.7670  -11.3440 H   0  0  0  0  0  0  0  0  0  0  0  0
   22.4630   35.9970   -9.3560 H   0  0  0  0  0  0  0  0  0  0  0  0
   18.7190   42.6140  -13.0820 H   0  0  0  0  0  0  0  0  0  0  0  0
   22.5980   37.4410  -14.0260 H   0  0  0  0  0  0  0  0  0  0  0  0
   26.7040   32.3410   -8.2010 H   0  0  0  0  0  0  0  0  0  0  0  0
   19.3000   43.8180  -15.0890 H   0  0  0  0  0  0  0  0  0  0  0  0
   19.6460   42.2650  -15.8850 H   0  0  0  0  0  0  0  0  0  0  0  0
   26.1830   35.1790   -4.5870 H   0  0  0  0  0  0  0  0  0  0  0  0
   23.2490   37.1230   -8.0000 H   0  0  0  0  0  0  0  0  0  0  0  0
   21.1110   38.0480   -7.5780 H   0  0  0  0  0  0  0  0  0  0  0  0
   21.4510   36.9800   -6.2000 H   0  0  0  0  0  0  0  0  0  0  0  0
   20.4870   39.3730   -5.7540 H   0  0  0  0  0  0  0  0  0  0  0  0
   22.1520   39.9170   -6.0650 H   0  0  0  0  0  0  0  0  0  0  0  0
   21.4210   39.3020   -3.6040 H   0  0  0  0  0  0  0  0  0  0  0  0
   21.6650   37.6250   -4.1580 H   0  0  0  0  0  0  0  0  0  0  0  0
   23.7570   39.7470   -4.7080 H   0  0  0  0  0  0  0  0  0  0  0  0
   23.7060   38.9230   -3.1320 H   0  0  0  0  0  0  0  0  0  0  0  0
   24.9820   34.5620  -11.6210 H   0  0  0  0  0  0  0  0  0  0  0  0
   17.2990   43.5300  -16.2140 H   0  0  0  0  0  0  0  0  0  0  0  0
   17.4060   41.7540  -16.1690 H   0  0  0  0  0  0  0  0  0  0  0  0
   16.9070   42.6520  -14.7160 H   0  0  0  0  0  0  0  0  0  0  0  0
   24.5530   39.0300   -8.2970 H   0  0  0  0  0  0  0  0  0  0  0  0
   24.0750   39.7290   -6.7320 H   0  0  0  0  0  0  0  0  0  0  0  0
   22.9250   39.7180   -8.0900 H   0  0  0  0  0  0  0  0  0  0  0  0
  1  2  1  0
  1 10  1  0
  1 35  1  1
  1 36  1  0
  2  3  1  0
  2  5  1  6
  2  6  1  0
  3 10  1  0
  3 37  1  6
  3 38  1  0
  4  7  2  0
  4  8  1  0
  4 39  1  0
  5 34  1  0
  5 40  1  6
  5 41  1  0
  6 34  1  0
  6 42  1  1
  6 43  1  0
  7 12  1  0
  7 34  1  0
  8  9  2  0
  8 44  1  0
  9 28  1  0
  9 29  1  0
 10 15  1  0
 10 45  1  1
 11 15  1  0
 11 61  1  6
 11 62  1  0
 11 63  1  0
 12 28  2  0
 12 46  1  0
 13 29  1  0
 13 30  2  0
 13 31  1  0
 14 16  2  0
 14 30  1  0
 14 47  1  0
 15 48  1  1
 15 49  1  0
 16 17  1  0
 16 27  1  0
 17 18  1  0
 17 31  2  0
 18 19  1  0
 18 20  2  0
 19 32  2  0
 19 50  1  0
 20 21  1  0
 20 33  1  0
 21 22  1  0
 21 26  1  0
 21 51  1  6
 22 23  1  0
 22 52  1  6
 22 53  1  0
 23 24  1  0
 23 54  1  1
 23 55  1  0
 24 25  1  0
 24 56  1  1
 24 57  1  0
 25 33  1  0
 25 58  1  6
 25 59  1  0
 26 64  1  6
 26 65  1  0
 26 66  1  0
 29 60  1  0
 32 33  1  0
M  CHG  1  10   1
M  END
