2ZK6
     RDKit          3D

 29 31  0  0  0  0  0  0  0  0999 V2000
   19.3140   64.0250   12.1300 C   0  0  0  0  0  0  0  0  0  0  0  0
   18.1580   63.6950   12.9040 C   0  0  0  0  0  0  0  0  0  0  0  0
   18.0500   63.4670   14.2380 C   0  0  0  0  0  0  0  0  0  0  0  0
   16.6610   63.2090   14.5350 C   0  0  0  0  0  0  0  0  0  0  0  0
   15.9510   63.2810   13.3740 C   0  0  0  0  0  0  0  0  0  0  0  0
   14.4730   63.1080   13.1250 C   0  0  0  0  0  0  0  0  0  0  0  0
   13.5740   62.8210   14.3220 C   0  0  0  0  0  0  0  0  0  0  0  0
   12.2460   62.2440   13.8260 C   0  0  0  0  0  0  0  0  0  0  0  0
   12.3720   60.7350   13.6060 C   0  0  0  0  0  0  0  0  0  0  0  0
   11.2400   59.9720   14.2730 C   0  0  0  0  0  0  0  0  0  0  0  0
   11.2460   60.1400   15.7990 C   0  0  0  0  0  0  0  0  0  0  0  0
    9.8330   60.4510   16.3100 C   0  0  0  0  0  0  0  0  0  0  0  0
    9.4470   59.5430   17.4550 C   0  0  0  0  0  0  0  0  0  0  0  0
   16.8790   63.5830   12.2910 N   0  0  0  0  0  0  0  0  0  0  0  0
   16.6010   64.7910   11.4210 B   0  0  1  0  0  0  0  0  0  0  0  0
   16.1720   65.8080   12.1090 F   0  0  0  0  0  0  0  0  0  0  0  0
   17.8030   65.1920   10.6670 N   0  0  0  0  0  0  0  0  0  0  0  0
   17.9070   65.9110    9.6190 C   0  0  0  0  0  0  0  0  0  0  0  0
   16.8290   66.5830    8.8280 C   0  0  0  0  0  0  0  0  0  0  0  0
   16.7960   68.1040    8.9090 C   0  0  0  0  0  0  0  0  0  0  0  0
   15.5030   68.5850    8.2800 C   0  0  0  0  0  0  0  0  0  0  0  0
   15.3490   70.0820    8.2840 C   0  0  0  0  0  0  0  0  0  0  0  0
   13.9330   70.5160    8.0480 C   0  0  0  0  0  0  0  0  0  0  0  0
   13.0450   69.8670    8.8420 O   0  0  0  0  0  0  0  0  0  0  0  0
   13.5630   71.3700    7.2760 O   0  0  0  0  0  0  0  0  0  0  0  0
   19.3190   66.0540    9.1660 C   0  0  0  0  0  0  0  0  0  0  0  0
   20.0130   65.3420   10.0760 C   0  0  0  0  0  0  0  0  0  0  0  0
   19.0900   64.7930   11.0390 C   0  0  0  0  0  0  0  0  0  0  0  0
   15.6710   64.3930   10.5820 F   0  0  0  0  0  0  0  0  0  0  0  0
 15 29  1  6
 15 14  1  0
 15 16  1  0
 15 17  1  0
  1 28  2  0
  1  2  1  0
  2 14  1  0
  2  3  2  0
  3  4  1  0
  4  5  2  0
  5 14  1  0
  5  6  1  0
  6  7  1  0
  7  8  1  0
  8  9  1  0
  9 10  1  0
 10 11  1  0
 11 12  1  0
 12 13  1  0
 18 26  1  0
 18 17  2  0
 18 19  1  0
 19 20  1  0
 20 21  1  0
 21 22  1  0
 22 23  1  0
 23 25  2  0
 23 24  1  0
 26 27  2  0
 27 28  1  0
 28 17  1  0
M  CHG  2  15  -1  17   1
M  END
$$$$
