6Q37
     RDKit          3D

 16 16  0  0  0  0  0  0  0  0999 V2000
   35.6210   85.8320   71.5430 C   0  0  0  0  0  0  0  0  0  0  0  0
   33.9940   88.6580   71.4910 C   0  0  0  0  0  0  0  0  0  0  0  0
   35.0200   88.9360   72.1690 O   0  0  0  0  0  0  0  0  0  0  0  0
   33.2730   89.5390   70.9490 O   0  0  0  0  0  0  0  0  0  0  0  0
   37.3660   86.6810   66.1070 B   0  0  2  0  0  0  0  0  0  0  0  0
   33.6100   87.2000   71.3430 C   0  0  1  0  0  0  0  0  0  0  0  0
   34.6630   86.4420   70.5160 C   0  0  1  0  0  0  0  0  0  0  0  0
   35.4290   87.2690   69.4810 C   0  0  0  0  0  0  0  0  0  0  0  0
   36.2040   86.4220   68.4540 C   0  0  0  0  0  0  0  0  0  0  0  0
   37.0090   87.3360   67.5130 C   0  0  0  0  0  0  0  0  0  0  0  0
   33.6250   86.5690   72.7500 C   0  0  0  0  0  0  0  0  0  0  0  0
   34.8330   85.7650   72.7700 N   0  0  0  0  0  0  0  0  0  0  0  0
   32.2660   87.0470   70.7450 N   0  0  0  0  0  0  0  0  0  0  0  0
   36.3280   85.8250   65.4300 O   0  0  0  0  0  0  0  0  0  0  0  0
   38.4330   85.6250   66.5130 O   0  0  0  0  0  0  0  0  0  0  0  0
   38.1350   87.5520   65.1360 O   0  0  0  0  0  0  0  0  0  0  0  0
  5 10  1  0
  5 14  1  6
  5 15  1  0
  5 16  1  0
  6  2  1  0
  6  7  1  0
  6 11  1  0
  6 13  1  6
  1  7  1  0
  1 12  1  0
  2  3  2  0
  2  4  1  0
  7  8  1  6
  8  9  1  0
  9 10  1  0
 11 12  1  0
M  CHG  1   5  -1
M  END
$$$$
